xflr5 v6.47

ELTA
T1-50.0 m/s-VLM2-Inviscid
QInf  =   50.000000 m/s
Alpha =    5.000000
Beta  =    0.000°
Phi   =    0.000°
Ctrl  =    0.000
CL    =    1.065890
Cy    =   -0.000000
Cd    =    0.035100     ICd   =    0.035100     PCd   =    0.000000
Cl   = -3.63087e-16
Cm   =    -0.43809
ICn   =    0.000000     PCn   =    0.000000 
XCP   =    0.523766     YCP   =    0.000000     ZCP   =    0.025199  
XNP   =    0.000000
Bending = 29887.408357

Main Wing
  y-span        Chord      Ai         Cl        PCd          ICd        CmGeom    CmAirf@chord/4    XTrtop    XTrBot      XCP       BM
   -6.2643     0.8812    -3.700    0.198139    0.000000    0.012655   -0.122211   -0.031926     0.0000    0.0000    0.4082    0.0000
   -6.2215     0.8861    -3.296    0.337533    0.000000    0.019411   -0.205372   -0.052925     0.0000    0.0000    0.4044    0.2463
   -6.1362     0.8959    -2.883    0.473172    0.000000    0.023818   -0.282030   -0.070715     0.0000    0.0000    0.3971    3.2538
   -6.0090     0.9105    -2.484    0.593194    0.000000    0.025730   -0.344319   -0.083667     0.0000    0.0000    0.3888   16.5642
   -5.8407     0.9298    -2.134    0.696118    0.000000    0.025934   -0.391952   -0.092431     0.0000    0.0000    0.3805   54.8444
   -5.6326     0.9537    -1.850    0.783189    0.000000    0.025302   -0.426638   -0.098093     0.0000    0.0000    0.3730   141.2459
   -5.3860     0.9820    -1.639    0.856667    0.000000    0.024515   -0.450672   -0.101658     0.0000    0.0000    0.3664   308.1085
   -5.1025     1.0145    -1.496    0.918915    0.000000    0.023996   -0.466248   -0.103872     0.0000    0.0000    0.3608   597.1335
   -4.7843     1.0510    -1.412    0.971955    0.000000    0.023957   -0.475205   -0.105226     0.0000    0.0000    0.3560   1059.1000
   -4.4333     1.0913    -1.378    1.017331    0.000000    0.024477   -0.478992   -0.106028     0.0000    0.0000    0.3520   1753.1389
   -4.0521     1.1351    -1.387    1.056121    0.000000    0.025569   -0.478727   -0.106460     0.0000    0.0000    0.3486   2745.5376
   -3.6431     1.1820    -1.431    1.089004    0.000000    0.027213   -0.475255   -0.106631     0.0000    0.0000    0.3457   4108.0294
   -3.2093     1.2318    -1.508    1.116332    0.000000    0.029384   -0.469211   -0.106603     0.0000    0.0000    0.3432   5915.5329
   -2.7536     1.2840    -1.613    1.138182    0.000000    0.032059   -0.461056   -0.106404     0.0000    0.0000    0.3412   8243.3324
   -2.2791     1.3385    -1.748    1.154377    0.000000    0.035228   -0.451104   -0.106034     0.0000    0.0000    0.3395   11163.7205
   -1.7890     1.3947    -1.913    1.164459    0.000000    0.038892   -0.439522   -0.105469     0.0000    0.0000    0.3382   14742.1649
   -1.2866     1.4524    -2.113    1.167587    0.000000    0.043080   -0.426312   -0.104652     0.0000    0.0000    0.3373   19033.0851
   -0.7755     1.5110    -2.360    1.162277    0.000000    0.047900   -0.411239   -0.103465     0.0000    0.0000    0.3367   24075.3331
   -0.2591     1.5703    -2.696    1.145502    0.000000    0.053943   -0.393516   -0.101627     0.0000    0.0000    0.3363   29887.4084
    0.2591     1.5703    -2.696    1.145502    0.000000    0.053943   -0.393516   -0.101627     0.0000    0.0000    0.3363   29886.7374
    0.7755     1.5110    -2.360    1.162277    0.000000    0.047900   -0.411239   -0.103465     0.0000    0.0000    0.3367   24074.6893
    1.2866     1.4524    -2.113    1.167587    0.000000    0.043080   -0.426312   -0.104652     0.0000    0.0000    0.3373   19032.4892
    1.7890     1.3947    -1.913    1.164459    0.000000    0.038892   -0.439522   -0.105469     0.0000    0.0000    0.3382   14741.6309
    2.2791     1.3385    -1.748    1.154377    0.000000    0.035228   -0.451104   -0.106034     0.0000    0.0000    0.3395   11163.2568
    2.7536     1.2840    -1.613    1.138182    0.000000    0.032059   -0.461056   -0.106404     0.0000    0.0000    0.3412   8242.9422
    3.2093     1.2318    -1.508    1.116332    0.000000    0.029384   -0.469211   -0.106603     0.0000    0.0000    0.3432   5915.2150
    3.6431     1.1820    -1.431    1.089004    0.000000    0.027213   -0.475255   -0.106631     0.0000    0.0000    0.3457   4107.7791
    4.0521     1.1351    -1.387    1.056121    0.000000    0.025569   -0.478727   -0.106460     0.0000    0.0000    0.3486   2745.3480
    4.4333     1.0913    -1.378    1.017331    0.000000    0.024477   -0.478992   -0.106028     0.0000    0.0000    0.3520   1753.0013
    4.7843     1.0510    -1.412    0.971955    0.000000    0.023957   -0.475205   -0.105226     0.0000    0.0000    0.3560   1059.0050
    5.1025     1.0145    -1.496    0.918915    0.000000    0.023996   -0.466248   -0.103872     0.0000    0.0000    0.3608   597.0719
    5.3860     0.9820    -1.639    0.856667    0.000000    0.024515   -0.450672   -0.101658     0.0000    0.0000    0.3664   308.0714
    5.6326     0.9537    -1.850    0.783189    0.000000    0.025302   -0.426638   -0.098093     0.0000    0.0000    0.3730   141.2257
    5.8407     0.9298    -2.134    0.696118    0.000000    0.025934   -0.391952   -0.092431     0.0000    0.0000    0.3805   54.8348
    6.0090     0.9105    -2.484    0.593194    0.000000    0.025730   -0.344319   -0.083667     0.0000    0.0000    0.3888   16.5604
    6.1362     0.8959    -2.883    0.473172    0.000000    0.023818   -0.282030   -0.070715     0.0000    0.0000    0.3971    3.2528
    6.2215     0.8861    -3.296    0.337533    0.000000    0.019411   -0.205372   -0.052925     0.0000    0.0000    0.4044    0.2462
    6.2643     0.8812    -3.700    0.198139    0.000000    0.012655   -0.122211   -0.031926     0.0000    0.0000    0.4082    0.0000


Main Wing Cp Coefficients
 Panel     CtrlPt.x        CtrlPt.y        CtrlPt.z       Nx      Ny       Nz        Area       Cp
Main WingCp Coefficients
Strip 1
   0       1.058e+00      -6.264e+00       2.450e-04           0.130           0.005           0.991       2.768e-04          0.0734
   1       1.039e+00      -6.264e+00       2.691e-03           0.125           0.005           0.992       8.136e-04          0.0979
   2       9.954e-01      -6.264e+00       7.944e-03           0.112           0.005           0.994       1.301e-03          0.1224
   3       9.302e-01      -6.264e+00       1.496e-02           0.095           0.004           0.995       1.712e-03          0.1442
   4       8.471e-01      -6.264e+00       2.240e-02           0.073           0.003           0.997       2.021e-03          0.1619
   5       7.508e-01      -6.264e+00       2.886e-02           0.049           0.002           0.999       2.213e-03          0.1794
   6       6.469e-01      -6.264e+00       3.324e-02           0.023           0.000           1.000       2.277e-03          0.2079
   7       5.414e-01      -6.264e+00       3.475e-02          -0.011          -0.001           1.000       2.210e-03          0.2513
   8       4.406e-01      -6.264e+00       3.236e-02          -0.065          -0.003           0.998       2.020e-03          0.2546
   9       3.501e-01      -6.264e+00       2.549e-02          -0.114          -0.006           0.993       1.715e-03          0.2388
  10       2.754e-01      -6.264e+00       1.636e-02          -0.152          -0.008           0.988       1.308e-03          0.2167
  11       2.208e-01      -6.264e+00       7.707e-03          -0.179          -0.010           0.984       8.205e-04          0.1484
  12       1.893e-01      -6.264e+00       2.179e-03          -0.124          -0.009           0.992       2.766e-04          0.6288
Strip 2
  13       1.061e+00      -6.221e+00      -4.624e-04           0.131           0.005           0.991       8.331e-04          0.0997
  14       1.042e+00      -6.221e+00       2.018e-03           0.126           0.005           0.992       2.449e-03          0.1558
  15       9.987e-01      -6.221e+00       7.347e-03           0.113           0.005           0.994       3.917e-03          0.2029
  16       9.332e-01      -6.221e+00       1.448e-02           0.096           0.004           0.995       5.152e-03          0.2425
  17       8.496e-01      -6.221e+00       2.205e-02           0.075           0.003           0.997       6.084e-03          0.2746
  18       7.527e-01      -6.221e+00       2.864e-02           0.050           0.002           0.999       6.661e-03          0.3059
  19       6.482e-01      -6.221e+00       3.316e-02           0.024           0.000           1.000       6.853e-03          0.3541
  20       5.422e-01      -6.221e+00       3.480e-02          -0.010          -0.001           1.000       6.653e-03          0.4234
  21       4.408e-01      -6.221e+00       3.250e-02          -0.064          -0.003           0.998       6.079e-03          0.4293
  22       3.499e-01      -6.221e+00       2.569e-02          -0.113          -0.006           0.994       5.161e-03          0.4044
  23       2.747e-01      -6.221e+00       1.658e-02          -0.151          -0.008           0.989       3.937e-03          0.3715
  24       2.198e-01      -6.221e+00       7.943e-03          -0.178          -0.010           0.984       2.469e-03          0.3182
  25       1.882e-01      -6.221e+00       2.419e-03          -0.123          -0.009           0.992       8.323e-04          0.9861
Strip 3
  26       1.069e+00      -6.136e+00      -1.872e-03           0.134           0.005           0.991       1.398e-03          0.1206
  27       1.049e+00      -6.136e+00       6.755e-04           0.128           0.005           0.992       4.109e-03          0.1983
  28       1.005e+00      -6.136e+00       6.157e-03           0.116           0.005           0.993       6.572e-03          0.2697
  29       9.390e-01      -6.136e+00       1.350e-02           0.098           0.004           0.995       8.644e-03          0.3309
  30       8.545e-01      -6.136e+00       2.133e-02           0.077           0.003           0.997       1.021e-02          0.3814
  31       7.566e-01      -6.136e+00       2.821e-02           0.052           0.002           0.999       1.117e-02          0.4294
  32       6.510e-01      -6.136e+00       3.300e-02           0.026           0.000           1.000       1.150e-02          0.4956
  33       5.438e-01      -6.136e+00       3.488e-02          -0.008          -0.001           1.000       1.116e-02          0.5818
  34       4.412e-01      -6.136e+00       3.277e-02          -0.062          -0.003           0.998       1.019e-02          0.5923
  35       3.493e-01      -6.136e+00       2.608e-02          -0.111          -0.006           0.994       8.655e-03          0.5649
  36       2.734e-01      -6.136e+00       1.703e-02          -0.149          -0.008           0.989       6.601e-03          0.5369
  37       2.178e-01      -6.136e+00       8.413e-03          -0.176          -0.010           0.984       4.139e-03          0.5319
  38       1.858e-01      -6.136e+00       2.895e-03          -0.121          -0.009           0.993       1.396e-03          1.4495
Strip 4
  39       1.079e+00      -6.009e+00      -3.975e-03           0.137           0.005           0.991       1.976e-03          0.1378
  40       1.060e+00      -6.009e+00      -1.326e-03           0.131           0.005           0.991       5.807e-03          0.2306
  41       1.015e+00      -6.009e+00       4.381e-03           0.119           0.004           0.993       9.289e-03          0.3205
  42       9.477e-01      -6.009e+00       1.205e-02           0.101           0.004           0.995       1.222e-02          0.4011
  43       8.618e-01      -6.009e+00       2.027e-02           0.080           0.003           0.997       1.442e-02          0.4697
  44       7.623e-01      -6.009e+00       2.756e-02           0.055           0.002           0.998       1.579e-02          0.5342
  45       6.550e-01      -6.009e+00       3.276e-02           0.029           0.000           1.000       1.624e-02          0.6151
  46       5.461e-01      -6.009e+00       3.500e-02          -0.005          -0.002           1.000       1.576e-02          0.7126
  47       4.419e-01      -6.009e+00       3.317e-02          -0.059          -0.003           0.998       1.440e-02          0.7300
  48       3.485e-01      -6.009e+00       2.666e-02          -0.108          -0.006           0.994       1.222e-02          0.7094
  49       2.713e-01      -6.009e+00       1.770e-02          -0.146          -0.008           0.989       9.323e-03          0.7016
  50       2.149e-01      -6.009e+00       9.115e-03          -0.173          -0.010           0.985       5.846e-03          0.7666
  51       1.824e-01      -6.009e+00       3.606e-03          -0.118          -0.009           0.993       1.971e-03          1.9820
Strip 5
  52       1.094e+00      -5.841e+00      -6.757e-03           0.140           0.004           0.990       2.571e-03          0.1516
  53       1.074e+00      -5.841e+00      -3.973e-03           0.135           0.004           0.991       7.558e-03          0.2559
  54       1.028e+00      -5.841e+00       2.032e-03           0.122           0.004           0.992       1.209e-02          0.3597
  55       9.592e-01      -5.841e+00       1.013e-02           0.105           0.004           0.994       1.590e-02          0.4552
  56       8.715e-01      -5.841e+00       1.887e-02           0.084           0.003           0.997       1.877e-02          0.5388
  57       7.700e-01      -5.841e+00       2.671e-02           0.059           0.002           0.998       2.054e-02          0.6173
  58       6.604e-01      -5.841e+00       3.244e-02           0.033           0.000           0.999       2.113e-02          0.7103
  59       5.492e-01      -5.841e+00       3.516e-02          -0.001          -0.002           1.000       2.051e-02          0.8180
  60       4.428e-01      -5.841e+00       3.371e-02          -0.055          -0.003           0.998       1.873e-02          0.8450
  61       3.474e-01      -5.841e+00       2.743e-02          -0.104          -0.006           0.995       1.589e-02          0.8380
  62       2.686e-01      -5.841e+00       1.859e-02          -0.142          -0.008           0.990       1.212e-02          0.8593
  63       2.110e-01      -5.841e+00       1.004e-02          -0.169          -0.010           0.986       7.599e-03          1.0038
  64       1.778e-01      -5.841e+00       4.547e-03          -0.115          -0.009           0.993       2.563e-03          2.5320
Strip 6
  65       1.111e+00      -5.633e+00      -1.020e-02           0.145           0.004           0.989       3.188e-03          0.1626
  66       1.091e+00      -5.633e+00      -7.248e-03           0.139           0.004           0.990       9.370e-03          0.2755
  67       1.044e+00      -5.633e+00      -8.733e-04           0.127           0.004           0.992       1.499e-02          0.3898
  68       9.735e-01      -5.633e+00       7.760e-03           0.110           0.003           0.994       1.971e-02          0.4965
  69       8.836e-01      -5.633e+00       1.713e-02           0.088           0.003           0.996       2.326e-02          0.5917
  70       7.794e-01      -5.633e+00       2.565e-02           0.064           0.002           0.998       2.546e-02          0.6814
  71       6.670e-01      -5.633e+00       3.205e-02           0.037           0.000           0.999       2.619e-02          0.7849
  72       5.530e-01      -5.633e+00       3.536e-02           0.004          -0.002           1.000       2.541e-02          0.9028
  73       4.439e-01      -5.633e+00       3.438e-02          -0.050          -0.003           0.999       2.320e-02          0.9414
  74       3.461e-01      -5.633e+00       2.838e-02          -0.099          -0.006           0.995       1.968e-02          0.9513
  75       2.653e-01      -5.633e+00       1.968e-02          -0.137          -0.008           0.990       1.501e-02          1.0049
  76       2.061e-01      -5.633e+00       1.119e-02          -0.165          -0.009           0.986       9.408e-03          1.2297
  77       1.721e-01      -5.633e+00       5.710e-03          -0.110          -0.009           0.994       3.174e-03          3.0629
Strip 7
  78       1.132e+00      -5.386e+00      -1.427e-02           0.150           0.004           0.989       3.828e-03          0.1711
  79       1.111e+00      -5.386e+00      -1.113e-02           0.144           0.003           0.990       1.125e-02          0.2908
  80       1.063e+00      -5.386e+00      -4.316e-03           0.132           0.003           0.991       1.799e-02          0.4129
  81       9.904e-01      -5.386e+00       4.948e-03           0.115           0.003           0.993       2.366e-02          0.5282
  82       8.978e-01      -5.386e+00       1.508e-02           0.093           0.002           0.996       2.792e-02          0.6323
  83       7.905e-01      -5.386e+00       2.440e-02           0.069           0.001           0.998       3.056e-02          0.7311
  84       6.749e-01      -5.386e+00       3.158e-02           0.042          -0.000           0.999       3.142e-02          0.8438
  85       5.575e-01      -5.386e+00       3.560e-02           0.009          -0.002           1.000       3.048e-02          0.9716
  86       4.452e-01      -5.386e+00       3.516e-02          -0.045          -0.003           0.999       2.783e-02          1.0225
  87       3.445e-01      -5.386e+00       2.951e-02          -0.094          -0.006           0.996       2.361e-02          1.0502
  88       2.613e-01      -5.386e+00       2.098e-02          -0.132          -0.008           0.991       1.799e-02          1.1360
  89       2.004e-01      -5.386e+00       1.255e-02          -0.160          -0.009           0.987       1.128e-02          1.4374
  90       1.654e-01      -5.386e+00       7.089e-03          -0.105          -0.008           0.994       3.806e-03          3.5551
Strip 8
  91       1.156e+00      -5.103e+00      -1.896e-02           0.155           0.003           0.988       4.492e-03          0.1777
  92       1.134e+00      -5.103e+00      -1.559e-02           0.149           0.003           0.989       1.320e-02          0.3026
  93       1.085e+00      -5.103e+00      -8.272e-03           0.137           0.003           0.991       2.111e-02          0.4309
  94       1.010e+00      -5.103e+00       1.715e-03           0.120           0.003           0.993       2.776e-02          0.5528
  95       9.141e-01      -5.103e+00       1.271e-02           0.099           0.002           0.995       3.275e-02          0.6640
  96       8.034e-01      -5.103e+00       2.296e-02           0.074           0.001           0.997       3.584e-02          0.7704
  97       6.839e-01      -5.103e+00       3.105e-02           0.048          -0.000           0.999       3.685e-02          0.8911
  98       5.626e-01      -5.103e+00       3.587e-02           0.014          -0.002           1.000       3.574e-02          1.0282
  99       4.466e-01      -5.103e+00       3.607e-02          -0.040          -0.003           0.999       3.262e-02          1.0911
 100       3.427e-01      -5.103e+00       3.081e-02          -0.089          -0.006           0.996       2.766e-02          1.1362
 101       2.568e-01      -5.103e+00       2.247e-02          -0.127          -0.008           0.992       2.108e-02          1.2526
 102       1.939e-01      -5.103e+00       1.412e-02          -0.154          -0.009           0.988       1.321e-02          1.6247
 103       1.577e-01      -5.103e+00       8.673e-03          -0.100          -0.008           0.995       4.459e-03          4.0015
Strip 9
 104       1.183e+00      -4.784e+00      -2.422e-02           0.161           0.003           0.987       5.179e-03          0.1829
 105       1.161e+00      -4.784e+00      -2.060e-02           0.155           0.003           0.988       1.522e-02          0.3119
 106       1.109e+00      -4.784e+00      -1.271e-02           0.143           0.003           0.990       2.434e-02          0.4449
 107       1.032e+00      -4.784e+00      -1.914e-03           0.126           0.002           0.992       3.200e-02          0.5721
 108       9.325e-01      -4.784e+00       1.006e-02           0.104           0.002           0.995       3.776e-02          0.6892
 109       8.178e-01      -4.784e+00       2.135e-02           0.080           0.001           0.997       4.131e-02          0.8018
 110       6.940e-01      -4.784e+00       3.045e-02           0.054          -0.000           0.999       4.247e-02          0.9297
 111       5.684e-01      -4.784e+00       3.618e-02           0.020          -0.002           1.000       4.118e-02          1.0753
 112       4.483e-01      -4.784e+00       3.708e-02          -0.034          -0.004           0.999       3.757e-02          1.1496
 113       3.406e-01      -4.784e+00       3.227e-02          -0.083          -0.006           0.997       3.185e-02          1.2110
 114       2.516e-01      -4.784e+00       2.415e-02          -0.121          -0.007           0.993       2.427e-02          1.3556
 115       1.865e-01      -4.784e+00       1.587e-02          -0.149          -0.009           0.989       1.521e-02          1.7920
 116       1.491e-01      -4.784e+00       1.045e-02          -0.094          -0.008           0.996       5.134e-03          4.4013
Strip 10
 117       1.213e+00      -4.433e+00      -3.002e-02           0.167           0.002           0.986       5.887e-03          0.1870
 118       1.190e+00      -4.433e+00      -2.612e-02           0.161           0.002           0.987       1.730e-02          0.3192
 119       1.136e+00      -4.433e+00      -1.761e-02           0.149           0.002           0.989       2.767e-02          0.4561
 120       1.056e+00      -4.433e+00      -5.917e-03           0.132           0.002           0.991       3.637e-02          0.5875
 121       9.528e-01      -4.433e+00       7.129e-03           0.110           0.001           0.994       4.291e-02          0.7093
 122       8.337e-01      -4.433e+00       1.957e-02           0.086           0.001           0.996       4.693e-02          0.8274
 123       7.052e-01      -4.433e+00       2.978e-02           0.060          -0.001           0.998       4.825e-02          0.9614
 124       5.749e-01      -4.433e+00       3.652e-02           0.026          -0.002           1.000       4.678e-02          1.1148
 125       4.502e-01      -4.433e+00       3.820e-02          -0.028          -0.004           1.000       4.266e-02          1.1995
 126       3.384e-01      -4.433e+00       3.387e-02          -0.077          -0.005           0.997       3.616e-02          1.2760
 127       2.460e-01      -4.433e+00       2.600e-02          -0.116          -0.007           0.993       2.754e-02          1.4462
 128       1.784e-01      -4.433e+00       1.781e-02          -0.143          -0.009           0.990       1.726e-02          1.9403
 129       1.395e-01      -4.433e+00       1.241e-02          -0.088          -0.008           0.996       5.828e-03          4.7569
Strip 11
 130       1.246e+00      -4.052e+00      -3.633e-02           0.173           0.002           0.985       6.613e-03          0.1902
 131       1.221e+00      -4.052e+00      -3.212e-02           0.167           0.002           0.986       1.944e-02          0.3249
 132       1.165e+00      -4.052e+00      -2.294e-02           0.155           0.002           0.988       3.107e-02          0.4649
 133       1.082e+00      -4.052e+00      -1.026e-02           0.138           0.001           0.990       4.084e-02          0.5998
 134       9.748e-01      -4.052e+00       3.949e-03           0.116           0.001           0.993       4.818e-02          0.7256
 135       8.510e-01      -4.052e+00       1.763e-02           0.092           0.000           0.996       5.269e-02          0.8482
 136       7.174e-01      -4.052e+00       2.906e-02           0.066          -0.001           0.998       5.416e-02          0.9877
 137       5.818e-01      -4.052e+00       3.689e-02           0.032          -0.002           0.999       5.250e-02          1.1480
 138       4.521e-01      -4.052e+00       3.942e-02          -0.022          -0.004           1.000       4.786e-02          1.2421
 139       3.359e-01      -4.052e+00       3.561e-02          -0.071          -0.005           0.997       4.055e-02          1.3322
 140       2.399e-01      -4.052e+00       2.801e-02          -0.110          -0.007           0.994       3.089e-02          1.5255
 141       1.696e-01      -4.052e+00       1.991e-02          -0.137          -0.009           0.991       1.935e-02          2.0710
 142       1.291e-01      -4.052e+00       1.454e-02          -0.082          -0.008           0.997       6.536e-03          5.0705
Strip 12
 143       1.280e+00      -3.643e+00      -4.309e-02           0.178           0.001           0.984       7.350e-03          0.1927
 144       1.255e+00      -3.643e+00      -3.855e-02           0.173           0.001           0.985       2.160e-02          0.3294
 145       1.197e+00      -3.643e+00      -2.864e-02           0.161           0.001           0.987       3.453e-02          0.4718
 146       1.110e+00      -3.643e+00      -1.493e-02           0.144           0.001           0.990       4.538e-02          0.6095
 147       9.984e-01      -3.643e+00       5.372e-04           0.122           0.001           0.993       5.353e-02          0.7386
 148       8.695e-01      -3.643e+00       1.555e-02           0.098           0.000           0.995       5.854e-02          0.8651
 149       7.304e-01      -3.643e+00       2.829e-02           0.072          -0.001           0.997       6.016e-02          1.0093
 150       5.893e-01      -3.643e+00       3.728e-02           0.038          -0.002           0.999       5.830e-02          1.1756
 151       4.543e-01      -3.643e+00       4.073e-02          -0.016          -0.004           1.000       5.314e-02          1.2782
 152       3.333e-01      -3.643e+00       3.749e-02          -0.065          -0.005           0.998       4.501e-02          1.3804
 153       2.333e-01      -3.643e+00       3.016e-02          -0.104          -0.007           0.995       3.427e-02          1.5942
 154       1.601e-01      -3.643e+00       2.217e-02          -0.131          -0.009           0.991       2.146e-02          2.1848
 155       1.180e-01      -3.643e+00       1.683e-02          -0.076          -0.008           0.997       7.254e-03          5.3438
Strip 13
 156       1.317e+00      -3.209e+00      -5.026e-02           0.184           0.001           0.983       8.092e-03          0.1946
 157       1.291e+00      -3.209e+00      -4.538e-02           0.178           0.001           0.984       2.378e-02          0.3328
 158       1.230e+00      -3.209e+00      -3.470e-02           0.166           0.001           0.986       3.801e-02          0.4770
 159       1.139e+00      -3.209e+00      -1.988e-02           0.149           0.001           0.989       4.995e-02          0.6169
 160       1.023e+00      -3.209e+00      -3.082e-03           0.128           0.000           0.992       5.891e-02          0.7486
 161       8.891e-01      -3.209e+00       1.335e-02           0.104          -0.000           0.995       6.442e-02          0.8784
 162       7.442e-01      -3.209e+00       2.747e-02           0.078          -0.001           0.997       6.619e-02          1.0266
 163       5.972e-01      -3.209e+00       3.770e-02           0.044          -0.002           0.999       6.413e-02          1.1981
 164       4.566e-01      -3.209e+00       4.211e-02          -0.010          -0.004           1.000       5.843e-02          1.3081
 165       3.305e-01      -3.209e+00       3.947e-02          -0.059          -0.005           0.998       4.948e-02          1.4210
 166       2.263e-01      -3.209e+00       3.244e-02          -0.098          -0.007           0.995       3.767e-02          1.6525
 167       1.501e-01      -3.209e+00       2.456e-02          -0.126          -0.009           0.992       2.359e-02          2.2820
 168       1.062e-01      -3.209e+00       1.925e-02          -0.070          -0.008           0.997       7.974e-03          5.5774
Strip 14
 169       1.356e+00      -2.754e+00      -5.779e-02           0.189           0.000           0.982       8.829e-03          0.1958
 170       1.328e+00      -2.754e+00      -5.255e-02           0.184           0.000           0.983       2.594e-02          0.3351
 171       1.265e+00      -2.754e+00      -4.106e-02           0.172           0.000           0.985       4.147e-02          0.4806
 172       1.171e+00      -2.754e+00      -2.507e-02           0.155           0.000           0.988       5.449e-02          0.6222
 173       1.050e+00      -2.754e+00      -6.883e-03           0.133           0.000           0.991       6.426e-02          0.7559
 174       9.098e-01      -2.754e+00       1.104e-02           0.109          -0.000           0.994       7.025e-02          0.8882
 175       7.588e-01      -2.754e+00       2.661e-02           0.083          -0.001           0.997       7.217e-02          1.0397
 176       6.055e-01      -2.754e+00       3.814e-02           0.050          -0.002           0.999       6.992e-02          1.2156
 177       4.589e-01      -2.754e+00       4.357e-02          -0.004          -0.004           1.000       6.368e-02          1.3319
 178       3.276e-01      -2.754e+00       4.156e-02          -0.054          -0.005           0.999       5.391e-02          1.4539
 179       2.190e-01      -2.754e+00       3.484e-02          -0.093          -0.007           0.996       4.103e-02          1.7004
 180       1.395e-01      -2.754e+00       2.708e-02          -0.120          -0.008           0.993       2.569e-02          2.3624
 181       9.382e-02      -2.754e+00       2.180e-02          -0.065          -0.007           0.998       8.688e-03          5.7709
Strip 15
 182       1.396e+00      -2.279e+00      -6.564e-02           0.194          -0.000           0.981       9.551e-03          0.1964
 183       1.367e+00      -2.279e+00      -6.001e-02           0.189          -0.000           0.982       2.807e-02          0.3362
 184       1.302e+00      -2.279e+00      -4.768e-02           0.177          -0.000           0.984       4.486e-02          0.4826
 185       1.203e+00      -2.279e+00      -3.048e-02           0.160          -0.000           0.987       5.894e-02          0.6252
 186       1.077e+00      -2.279e+00      -1.084e-02           0.139          -0.000           0.990       6.949e-02          0.7604
 187       9.312e-01      -2.279e+00       8.631e-03           0.115          -0.001           0.993       7.596e-02          0.8946
 188       7.739e-01      -2.279e+00       2.572e-02           0.089          -0.001           0.996       7.803e-02          1.0486
 189       6.142e-01      -2.279e+00       3.860e-02           0.055          -0.002           0.998       7.558e-02          1.2280
 190       4.614e-01      -2.279e+00       4.508e-02           0.001          -0.004           1.000       6.882e-02          1.3495
 191       3.245e-01      -2.279e+00       4.373e-02          -0.048          -0.005           0.999       5.825e-02          1.4789
 192       2.113e-01      -2.279e+00       3.734e-02          -0.087          -0.007           0.996       4.432e-02          1.7375
 193       1.285e-01      -2.279e+00       2.969e-02          -0.115          -0.008           0.993       2.775e-02          2.4254
 194       8.092e-02      -2.279e+00       2.445e-02          -0.059          -0.007           0.998       9.385e-03          5.9226
Strip 16
 195       1.438e+00      -1.789e+00      -7.374e-02           0.199          -0.001           0.980       1.025e-02          0.1964
 196       1.408e+00      -1.789e+00      -6.772e-02           0.194          -0.001           0.981       3.011e-02          0.3362
 197       1.339e+00      -1.789e+00      -5.453e-02           0.182          -0.000           0.983       4.812e-02          0.4828
 198       1.237e+00      -1.789e+00      -3.607e-02           0.165          -0.000           0.986       6.322e-02          0.6258
 199       1.105e+00      -1.789e+00      -1.493e-02           0.144          -0.000           0.990       7.454e-02          0.7618
 200       9.534e-01      -1.789e+00       6.143e-03           0.120          -0.001           0.993       8.147e-02          0.8973
 201       7.895e-01      -1.789e+00       2.479e-02           0.094          -0.002           0.996       8.367e-02          1.0530
 202       6.231e-01      -1.789e+00       3.907e-02           0.060          -0.002           0.998       8.103e-02          1.2349
 203       4.640e-01      -1.789e+00       4.664e-02           0.006          -0.004           1.000       7.376e-02          1.3603
 204       3.213e-01      -1.789e+00       4.597e-02          -0.043          -0.005           0.999       6.241e-02          1.4953
 205       2.035e-01      -1.789e+00       3.992e-02          -0.082          -0.007           0.997       4.748e-02          1.7629
 206       1.172e-01      -1.789e+00       3.240e-02          -0.110          -0.008           0.994       2.972e-02          2.4695
 207       6.759e-02      -1.789e+00       2.719e-02          -0.054          -0.007           0.999       1.006e-02          6.0294
Strip 17
 208       1.480e+00      -1.287e+00      -8.204e-02           0.204          -0.001           0.979       1.090e-02          0.1956
 209       1.449e+00      -1.287e+00      -7.563e-02           0.198          -0.001           0.980       3.204e-02          0.3348
 210       1.378e+00      -1.287e+00      -6.154e-02           0.186          -0.001           0.982       5.121e-02          0.4809
 211       1.271e+00      -1.287e+00      -4.180e-02           0.170          -0.001           0.985       6.727e-02          0.6237
 212       1.134e+00      -1.287e+00      -1.912e-02           0.149          -0.001           0.989       7.930e-02          0.7597
 213       9.762e-01      -1.287e+00       3.593e-03           0.124          -0.001           0.992       8.666e-02          0.8955
 214       8.055e-01      -1.287e+00       2.384e-02           0.099          -0.002           0.995       8.900e-02          1.0521
 215       6.323e-01      -1.287e+00       3.955e-02           0.065          -0.003           0.998       8.617e-02          1.2355
 216       4.666e-01      -1.287e+00       4.825e-02           0.011          -0.004           1.000       7.842e-02          1.3635
 217       3.181e-01      -1.287e+00       4.827e-02          -0.039          -0.005           0.999       6.634e-02          1.5021
 218       1.954e-01      -1.287e+00       4.257e-02          -0.077          -0.007           0.997       5.046e-02          1.7752
 219       1.056e-01      -1.287e+00       3.517e-02          -0.105          -0.008           0.994       3.158e-02          2.4926
 220       5.392e-02      -1.287e+00       3.000e-02          -0.049          -0.007           0.999       1.069e-02          6.0861
Strip 18
 221       1.524e+00      -7.755e-01      -9.049e-02           0.208          -0.002           0.978       1.151e-02          0.1937
 222       1.491e+00      -7.755e-01      -8.367e-02           0.203          -0.001           0.979       3.382e-02          0.3316
 223       1.417e+00      -7.755e-01      -6.867e-02           0.191          -0.001           0.982       5.405e-02          0.4763
 224       1.306e+00      -7.755e-01      -4.763e-02           0.174          -0.001           0.985       7.100e-02          0.6179
 225       1.164e+00      -7.755e-01      -2.339e-02           0.153          -0.001           0.988       8.369e-02          0.7530
 226       9.993e-01      -7.755e-01       9.988e-04           0.129          -0.001           0.992       9.145e-02          0.8885
 227       8.218e-01      -7.755e-01       2.288e-02           0.103          -0.002           0.995       9.390e-02          1.0449
 228       6.416e-01      -7.755e-01       4.004e-02           0.070          -0.003           0.998       9.091e-02          1.2286
 229       4.693e-01      -7.755e-01       4.988e-02           0.016          -0.004           1.000       8.271e-02          1.3575
 230       3.148e-01      -7.755e-01       5.060e-02          -0.034          -0.005           0.999       6.995e-02          1.4974
 231       1.872e-01      -7.755e-01       4.526e-02          -0.073          -0.007           0.997       5.320e-02          1.7718
 232       9.376e-02      -7.755e-01       3.799e-02          -0.101          -0.008           0.995       3.329e-02          2.4906
 233       4.002e-02      -7.755e-01       3.286e-02          -0.045          -0.007           0.999       1.127e-02          6.0833
Strip 19
 234       1.568e+00      -2.591e-01      -9.903e-02           0.212          -0.002           0.977       1.205e-02          0.1896
 235       1.534e+00      -2.591e-01      -9.180e-02           0.207          -0.002           0.978       3.541e-02          0.3246
 236       1.457e+00      -2.591e-01      -7.588e-02           0.195          -0.001           0.981       5.659e-02          0.4664
 237       1.341e+00      -2.591e-01      -5.352e-02           0.178          -0.001           0.984       7.433e-02          0.6059
 238       1.194e+00      -2.591e-01      -2.769e-02           0.157          -0.001           0.988       8.761e-02          0.7396
 239       1.023e+00      -2.591e-01      -1.622e-03           0.133          -0.001           0.991       9.573e-02          0.8742
 240       8.383e-01      -2.591e-01       2.190e-02           0.107          -0.002           0.994       9.828e-02          1.0299
 241       6.511e-01      -2.591e-01       4.054e-02           0.074          -0.003           0.997       9.513e-02          1.2126
 242       4.720e-01      -2.591e-01       5.153e-02           0.020          -0.004           1.000       8.654e-02          1.3402
 243       3.115e-01      -2.591e-01       5.297e-02          -0.030          -0.005           1.000       7.317e-02          1.4776
 244       1.789e-01      -2.591e-01       4.798e-02          -0.069          -0.007           0.998       5.564e-02          1.7471
 245       8.181e-02      -2.591e-01       4.084e-02          -0.096          -0.008           0.995       3.481e-02          2.4535
 246       2.597e-02      -2.591e-01       3.575e-02          -0.041          -0.007           0.999       1.179e-02          5.9970
Strip 20
 247       1.568e+00       2.591e-01      -9.903e-02           0.212           0.002           0.977       1.205e-02          0.1896
 248       1.534e+00       2.591e-01      -9.180e-02           0.207           0.002           0.978       3.541e-02          0.3246
 249       1.457e+00       2.591e-01      -7.588e-02           0.195           0.001           0.981       5.659e-02          0.4664
 250       1.341e+00       2.591e-01      -5.352e-02           0.178           0.001           0.984       7.433e-02          0.6059
 251       1.194e+00       2.591e-01      -2.769e-02           0.157           0.001           0.988       8.761e-02          0.7396
 252       1.023e+00       2.591e-01      -1.622e-03           0.133           0.001           0.991       9.573e-02          0.8742
 253       8.383e-01       2.591e-01       2.190e-02           0.107           0.002           0.994       9.828e-02          1.0299
 254       6.511e-01       2.591e-01       4.054e-02           0.074           0.003           0.997       9.513e-02          1.2126
 255       4.720e-01       2.591e-01       5.153e-02           0.020           0.004           1.000       8.654e-02          1.3402
 256       3.115e-01       2.591e-01       5.297e-02          -0.030           0.005           1.000       7.317e-02          1.4776
 257       1.789e-01       2.591e-01       4.798e-02          -0.069           0.007           0.998       5.564e-02          1.7471
 258       8.181e-02       2.591e-01       4.084e-02          -0.096           0.008           0.995       3.481e-02          2.4535
 259       2.597e-02       2.591e-01       3.575e-02          -0.041           0.007           0.999       1.179e-02          5.9970
Strip 21
 260       1.524e+00       7.755e-01      -9.049e-02           0.208           0.002           0.978       1.151e-02          0.1937
 261       1.491e+00       7.755e-01      -8.367e-02           0.203           0.001           0.979       3.382e-02          0.3316
 262       1.417e+00       7.755e-01      -6.867e-02           0.191           0.001           0.982       5.405e-02          0.4763
 263       1.306e+00       7.755e-01      -4.763e-02           0.174           0.001           0.985       7.100e-02          0.6179
 264       1.164e+00       7.755e-01      -2.339e-02           0.153           0.001           0.988       8.369e-02          0.7530
 265       9.993e-01       7.755e-01       9.988e-04           0.129           0.001           0.992       9.145e-02          0.8885
 266       8.218e-01       7.755e-01       2.288e-02           0.103           0.002           0.995       9.390e-02          1.0449
 267       6.416e-01       7.755e-01       4.004e-02           0.070           0.003           0.998       9.091e-02          1.2286
 268       4.693e-01       7.755e-01       4.988e-02           0.016           0.004           1.000       8.271e-02          1.3575
 269       3.148e-01       7.755e-01       5.060e-02          -0.034           0.005           0.999       6.995e-02          1.4974
 270       1.872e-01       7.755e-01       4.526e-02          -0.073           0.007           0.997       5.320e-02          1.7718
 271       9.376e-02       7.755e-01       3.799e-02          -0.101           0.008           0.995       3.329e-02          2.4906
 272       4.002e-02       7.755e-01       3.286e-02          -0.045           0.007           0.999       1.127e-02          6.0833
Strip 22
 273       1.480e+00       1.287e+00      -8.204e-02           0.204           0.001           0.979       1.090e-02          0.1956
 274       1.449e+00       1.287e+00      -7.563e-02           0.198           0.001           0.980       3.204e-02          0.3348
 275       1.378e+00       1.287e+00      -6.154e-02           0.186           0.001           0.982       5.121e-02          0.4809
 276       1.271e+00       1.287e+00      -4.180e-02           0.170           0.001           0.985       6.727e-02          0.6237
 277       1.134e+00       1.287e+00      -1.912e-02           0.149           0.001           0.989       7.930e-02          0.7597
 278       9.762e-01       1.287e+00       3.593e-03           0.124           0.001           0.992       8.666e-02          0.8955
 279       8.055e-01       1.287e+00       2.384e-02           0.099           0.002           0.995       8.900e-02          1.0521
 280       6.323e-01       1.287e+00       3.955e-02           0.065           0.003           0.998       8.617e-02          1.2355
 281       4.666e-01       1.287e+00       4.825e-02           0.011           0.004           1.000       7.842e-02          1.3635
 282       3.181e-01       1.287e+00       4.827e-02          -0.039           0.005           0.999       6.634e-02          1.5021
 283       1.954e-01       1.287e+00       4.257e-02          -0.077           0.007           0.997       5.046e-02          1.7752
 284       1.056e-01       1.287e+00       3.517e-02          -0.105           0.008           0.994       3.158e-02          2.4926
 285       5.392e-02       1.287e+00       3.000e-02          -0.049           0.007           0.999       1.069e-02          6.0861
Strip 23
 286       1.438e+00       1.789e+00      -7.374e-02           0.199           0.001           0.980       1.025e-02          0.1964
 287       1.408e+00       1.789e+00      -6.772e-02           0.194           0.001           0.981       3.011e-02          0.3362
 288       1.339e+00       1.789e+00      -5.453e-02           0.182           0.000           0.983       4.812e-02          0.4828
 289       1.237e+00       1.789e+00      -3.607e-02           0.165           0.000           0.986       6.322e-02          0.6258
 290       1.105e+00       1.789e+00      -1.493e-02           0.144           0.000           0.990       7.454e-02          0.7618
 291       9.534e-01       1.789e+00       6.143e-03           0.120           0.001           0.993       8.147e-02          0.8973
 292       7.895e-01       1.789e+00       2.479e-02           0.094           0.002           0.996       8.367e-02          1.0530
 293       6.231e-01       1.789e+00       3.907e-02           0.060           0.002           0.998       8.103e-02          1.2349
 294       4.640e-01       1.789e+00       4.664e-02           0.006           0.004           1.000       7.376e-02          1.3603
 295       3.213e-01       1.789e+00       4.597e-02          -0.043           0.005           0.999       6.241e-02          1.4953
 296       2.035e-01       1.789e+00       3.992e-02          -0.082           0.007           0.997       4.748e-02          1.7629
 297       1.172e-01       1.789e+00       3.240e-02          -0.110           0.008           0.994       2.972e-02          2.4695
 298       6.759e-02       1.789e+00       2.719e-02          -0.054           0.007           0.999       1.006e-02          6.0294
Strip 24
 299       1.396e+00       2.279e+00      -6.564e-02           0.194           0.000           0.981       9.551e-03          0.1964
 300       1.367e+00       2.279e+00      -6.001e-02           0.189           0.000           0.982       2.807e-02          0.3362
 301       1.302e+00       2.279e+00      -4.768e-02           0.177           0.000           0.984       4.486e-02          0.4826
 302       1.203e+00       2.279e+00      -3.048e-02           0.160           0.000           0.987       5.894e-02          0.6252
 303       1.077e+00       2.279e+00      -1.084e-02           0.139           0.000           0.990       6.949e-02          0.7604
 304       9.312e-01       2.279e+00       8.631e-03           0.115           0.001           0.993       7.596e-02          0.8946
 305       7.739e-01       2.279e+00       2.572e-02           0.089           0.001           0.996       7.803e-02          1.0486
 306       6.142e-01       2.279e+00       3.860e-02           0.055           0.002           0.998       7.558e-02          1.2280
 307       4.614e-01       2.279e+00       4.508e-02           0.001           0.004           1.000       6.882e-02          1.3495
 308       3.245e-01       2.279e+00       4.373e-02          -0.048           0.005           0.999       5.825e-02          1.4789
 309       2.113e-01       2.279e+00       3.734e-02          -0.087           0.007           0.996       4.432e-02          1.7375
 310       1.285e-01       2.279e+00       2.969e-02          -0.115           0.008           0.993       2.775e-02          2.4254
 311       8.092e-02       2.279e+00       2.445e-02          -0.059           0.007           0.998       9.385e-03          5.9226
Strip 25
 312       1.356e+00       2.754e+00      -5.779e-02           0.189          -0.000           0.982       8.829e-03          0.1958
 313       1.328e+00       2.754e+00      -5.255e-02           0.184          -0.000           0.983       2.594e-02          0.3351
 314       1.265e+00       2.754e+00      -4.106e-02           0.172          -0.000           0.985       4.147e-02          0.4806
 315       1.171e+00       2.754e+00      -2.507e-02           0.155          -0.000           0.988       5.449e-02          0.6222
 316       1.050e+00       2.754e+00      -6.883e-03           0.133          -0.000           0.991       6.426e-02          0.7559
 317       9.098e-01       2.754e+00       1.104e-02           0.109           0.000           0.994       7.025e-02          0.8882
 318       7.588e-01       2.754e+00       2.661e-02           0.083           0.001           0.997       7.217e-02          1.0397
 319       6.055e-01       2.754e+00       3.814e-02           0.050           0.002           0.999       6.992e-02          1.2156
 320       4.589e-01       2.754e+00       4.357e-02          -0.004           0.004           1.000       6.368e-02          1.3319
 321       3.276e-01       2.754e+00       4.156e-02          -0.054           0.005           0.999       5.391e-02          1.4539
 322       2.190e-01       2.754e+00       3.484e-02          -0.093           0.007           0.996       4.103e-02          1.7004
 323       1.395e-01       2.754e+00       2.708e-02          -0.120           0.008           0.993       2.569e-02          2.3624
 324       9.382e-02       2.754e+00       2.180e-02          -0.065           0.007           0.998       8.688e-03          5.7709
Strip 26
 325       1.317e+00       3.209e+00      -5.026e-02           0.184          -0.001           0.983       8.092e-03          0.1946
 326       1.291e+00       3.209e+00      -4.538e-02           0.178          -0.001           0.984       2.378e-02          0.3328
 327       1.230e+00       3.209e+00      -3.470e-02           0.166          -0.001           0.986       3.801e-02          0.4770
 328       1.139e+00       3.209e+00      -1.988e-02           0.149          -0.001           0.989       4.995e-02          0.6169
 329       1.023e+00       3.209e+00      -3.082e-03           0.128          -0.000           0.992       5.891e-02          0.7486
 330       8.891e-01       3.209e+00       1.335e-02           0.104           0.000           0.995       6.442e-02          0.8784
 331       7.442e-01       3.209e+00       2.747e-02           0.078           0.001           0.997       6.619e-02          1.0266
 332       5.972e-01       3.209e+00       3.770e-02           0.044           0.002           0.999       6.413e-02          1.1981
 333       4.566e-01       3.209e+00       4.211e-02          -0.010           0.004           1.000       5.843e-02          1.3081
 334       3.305e-01       3.209e+00       3.947e-02          -0.059           0.005           0.998       4.948e-02          1.4210
 335       2.263e-01       3.209e+00       3.244e-02          -0.098           0.007           0.995       3.767e-02          1.6525
 336       1.501e-01       3.209e+00       2.456e-02          -0.126           0.009           0.992       2.359e-02          2.2820
 337       1.062e-01       3.209e+00       1.925e-02          -0.070           0.008           0.997       7.974e-03          5.5774
Strip 27
 338       1.280e+00       3.643e+00      -4.309e-02           0.178          -0.001           0.984       7.350e-03          0.1927
 339       1.255e+00       3.643e+00      -3.855e-02           0.173          -0.001           0.985       2.160e-02          0.3294
 340       1.197e+00       3.643e+00      -2.864e-02           0.161          -0.001           0.987       3.453e-02          0.4718
 341       1.110e+00       3.643e+00      -1.493e-02           0.144          -0.001           0.990       4.538e-02          0.6095
 342       9.984e-01       3.643e+00       5.372e-04           0.122          -0.001           0.993       5.353e-02          0.7386
 343       8.695e-01       3.643e+00       1.555e-02           0.098          -0.000           0.995       5.854e-02          0.8651
 344       7.304e-01       3.643e+00       2.829e-02           0.072           0.001           0.997       6.016e-02          1.0093
 345       5.893e-01       3.643e+00       3.728e-02           0.038           0.002           0.999       5.830e-02          1.1756
 346       4.543e-01       3.643e+00       4.073e-02          -0.016           0.004           1.000       5.314e-02          1.2782
 347       3.333e-01       3.643e+00       3.749e-02          -0.065           0.005           0.998       4.501e-02          1.3804
 348       2.333e-01       3.643e+00       3.016e-02          -0.104           0.007           0.995       3.427e-02          1.5942
 349       1.601e-01       3.643e+00       2.217e-02          -0.131           0.009           0.991       2.146e-02          2.1848
 350       1.180e-01       3.643e+00       1.683e-02          -0.076           0.008           0.997       7.254e-03          5.3438
Strip 28
 351       1.246e+00       4.052e+00      -3.633e-02           0.173          -0.002           0.985       6.613e-03          0.1902
 352       1.221e+00       4.052e+00      -3.212e-02           0.167          -0.002           0.986       1.944e-02          0.3249
 353       1.165e+00       4.052e+00      -2.294e-02           0.155          -0.002           0.988       3.107e-02          0.4649
 354       1.082e+00       4.052e+00      -1.026e-02           0.138          -0.001           0.990       4.084e-02          0.5998
 355       9.748e-01       4.052e+00       3.949e-03           0.116          -0.001           0.993       4.818e-02          0.7256
 356       8.510e-01       4.052e+00       1.763e-02           0.092          -0.000           0.996       5.269e-02          0.8482
 357       7.174e-01       4.052e+00       2.906e-02           0.066           0.001           0.998       5.416e-02          0.9877
 358       5.818e-01       4.052e+00       3.689e-02           0.032           0.002           0.999       5.250e-02          1.1480
 359       4.521e-01       4.052e+00       3.942e-02          -0.022           0.004           1.000       4.786e-02          1.2421
 360       3.359e-01       4.052e+00       3.561e-02          -0.071           0.005           0.997       4.055e-02          1.3322
 361       2.399e-01       4.052e+00       2.801e-02          -0.110           0.007           0.994       3.089e-02          1.5255
 362       1.696e-01       4.052e+00       1.991e-02          -0.137           0.009           0.991       1.935e-02          2.0710
 363       1.291e-01       4.052e+00       1.454e-02          -0.082           0.008           0.997       6.536e-03          5.0705
Strip 29
 364       1.213e+00       4.433e+00      -3.002e-02           0.167          -0.002           0.986       5.887e-03          0.1870
 365       1.190e+00       4.433e+00      -2.612e-02           0.161          -0.002           0.987       1.730e-02          0.3192
 366       1.136e+00       4.433e+00      -1.761e-02           0.149          -0.002           0.989       2.767e-02          0.4561
 367       1.056e+00       4.433e+00      -5.917e-03           0.132          -0.002           0.991       3.637e-02          0.5875
 368       9.528e-01       4.433e+00       7.129e-03           0.110          -0.001           0.994       4.291e-02          0.7093
 369       8.337e-01       4.433e+00       1.957e-02           0.086          -0.001           0.996       4.693e-02          0.8274
 370       7.052e-01       4.433e+00       2.978e-02           0.060           0.001           0.998       4.825e-02          0.9614
 371       5.749e-01       4.433e+00       3.652e-02           0.026           0.002           1.000       4.678e-02          1.1148
 372       4.502e-01       4.433e+00       3.820e-02          -0.028           0.004           1.000       4.266e-02          1.1995
 373       3.384e-01       4.433e+00       3.387e-02          -0.077           0.005           0.997       3.616e-02          1.2760
 374       2.460e-01       4.433e+00       2.600e-02          -0.116           0.007           0.993       2.754e-02          1.4462
 375       1.784e-01       4.433e+00       1.781e-02          -0.143           0.009           0.990       1.726e-02          1.9403
 376       1.395e-01       4.433e+00       1.241e-02          -0.088           0.008           0.996       5.828e-03          4.7569
Strip 30
 377       1.183e+00       4.784e+00      -2.422e-02           0.161          -0.003           0.987       5.179e-03          0.1829
 378       1.161e+00       4.784e+00      -2.060e-02           0.155          -0.003           0.988       1.522e-02          0.3119
 379       1.109e+00       4.784e+00      -1.271e-02           0.143          -0.003           0.990       2.434e-02          0.4449
 380       1.032e+00       4.784e+00      -1.914e-03           0.126          -0.002           0.992       3.200e-02          0.5721
 381       9.325e-01       4.784e+00       1.006e-02           0.104          -0.002           0.995       3.776e-02          0.6892
 382       8.178e-01       4.784e+00       2.135e-02           0.080          -0.001           0.997       4.131e-02          0.8018
 383       6.940e-01       4.784e+00       3.045e-02           0.054           0.000           0.999       4.247e-02          0.9297
 384       5.684e-01       4.784e+00       3.618e-02           0.020           0.002           1.000       4.118e-02          1.0753
 385       4.483e-01       4.784e+00       3.708e-02          -0.034           0.004           0.999       3.757e-02          1.1496
 386       3.406e-01       4.784e+00       3.227e-02          -0.083           0.006           0.997       3.185e-02          1.2110
 387       2.516e-01       4.784e+00       2.415e-02          -0.121           0.007           0.993       2.427e-02          1.3556
 388       1.865e-01       4.784e+00       1.587e-02          -0.149           0.009           0.989       1.521e-02          1.7920
 389       1.491e-01       4.784e+00       1.045e-02          -0.094           0.008           0.996       5.134e-03          4.4013
Strip 31
 390       1.156e+00       5.103e+00      -1.896e-02           0.155          -0.003           0.988       4.492e-03          0.1777
 391       1.134e+00       5.103e+00      -1.559e-02           0.149          -0.003           0.989       1.320e-02          0.3026
 392       1.085e+00       5.103e+00      -8.272e-03           0.137          -0.003           0.991       2.111e-02          0.4309
 393       1.010e+00       5.103e+00       1.715e-03           0.120          -0.003           0.993       2.776e-02          0.5528
 394       9.141e-01       5.103e+00       1.271e-02           0.099          -0.002           0.995       3.275e-02          0.6640
 395       8.034e-01       5.103e+00       2.296e-02           0.074          -0.001           0.997       3.584e-02          0.7704
 396       6.839e-01       5.103e+00       3.105e-02           0.048           0.000           0.999       3.685e-02          0.8911
 397       5.626e-01       5.103e+00       3.587e-02           0.014           0.002           1.000       3.574e-02          1.0282
 398       4.466e-01       5.103e+00       3.607e-02          -0.040           0.003           0.999       3.262e-02          1.0911
 399       3.427e-01       5.103e+00       3.081e-02          -0.089           0.006           0.996       2.766e-02          1.1362
 400       2.568e-01       5.103e+00       2.247e-02          -0.127           0.008           0.992       2.108e-02          1.2526
 401       1.939e-01       5.103e+00       1.412e-02          -0.154           0.009           0.988       1.321e-02          1.6247
 402       1.577e-01       5.103e+00       8.673e-03          -0.100           0.008           0.995       4.459e-03          4.0015
Strip 32
 403       1.132e+00       5.386e+00      -1.427e-02           0.150          -0.004           0.989       3.828e-03          0.1711
 404       1.111e+00       5.386e+00      -1.113e-02           0.144          -0.003           0.990       1.125e-02          0.2908
 405       1.063e+00       5.386e+00      -4.316e-03           0.132          -0.003           0.991       1.799e-02          0.4129
 406       9.904e-01       5.386e+00       4.948e-03           0.115          -0.003           0.993       2.366e-02          0.5282
 407       8.978e-01       5.386e+00       1.508e-02           0.093          -0.002           0.996       2.792e-02          0.6323
 408       7.905e-01       5.386e+00       2.440e-02           0.069          -0.001           0.998       3.056e-02          0.7311
 409       6.749e-01       5.386e+00       3.158e-02           0.042           0.000           0.999       3.142e-02          0.8438
 410       5.575e-01       5.386e+00       3.560e-02           0.009           0.002           1.000       3.048e-02          0.9716
 411       4.452e-01       5.386e+00       3.516e-02          -0.045           0.003           0.999       2.783e-02          1.0225
 412       3.445e-01       5.386e+00       2.951e-02          -0.094           0.006           0.996       2.361e-02          1.0502
 413       2.613e-01       5.386e+00       2.098e-02          -0.132           0.008           0.991       1.799e-02          1.1360
 414       2.004e-01       5.386e+00       1.255e-02          -0.160           0.009           0.987       1.128e-02          1.4374
 415       1.654e-01       5.386e+00       7.089e-03          -0.105           0.008           0.994       3.806e-03          3.5551
Strip 33
 416       1.111e+00       5.633e+00      -1.020e-02           0.145          -0.004           0.989       3.188e-03          0.1626
 417       1.091e+00       5.633e+00      -7.248e-03           0.139          -0.004           0.990       9.370e-03          0.2755
 418       1.044e+00       5.633e+00      -8.733e-04           0.127          -0.004           0.992       1.499e-02          0.3898
 419       9.735e-01       5.633e+00       7.760e-03           0.110          -0.003           0.994       1.971e-02          0.4965
 420       8.836e-01       5.633e+00       1.713e-02           0.088          -0.003           0.996       2.326e-02          0.5917
 421       7.794e-01       5.633e+00       2.565e-02           0.064          -0.002           0.998       2.546e-02          0.6814
 422       6.670e-01       5.633e+00       3.205e-02           0.037          -0.000           0.999       2.619e-02          0.7849
 423       5.530e-01       5.633e+00       3.536e-02           0.004           0.002           1.000       2.541e-02          0.9028
 424       4.439e-01       5.633e+00       3.438e-02          -0.050           0.003           0.999       2.320e-02          0.9414
 425       3.461e-01       5.633e+00       2.838e-02          -0.099           0.006           0.995       1.968e-02          0.9513
 426       2.653e-01       5.633e+00       1.968e-02          -0.137           0.008           0.990       1.501e-02          1.0049
 427       2.061e-01       5.633e+00       1.119e-02          -0.165           0.009           0.986       9.408e-03          1.2297
 428       1.721e-01       5.633e+00       5.710e-03          -0.110           0.009           0.994       3.174e-03          3.0629
Strip 34
 429       1.094e+00       5.841e+00      -6.757e-03           0.140          -0.004           0.990       2.571e-03          0.1516
 430       1.074e+00       5.841e+00      -3.973e-03           0.135          -0.004           0.991       7.558e-03          0.2559
 431       1.028e+00       5.841e+00       2.032e-03           0.122          -0.004           0.992       1.209e-02          0.3597
 432       9.592e-01       5.841e+00       1.013e-02           0.105          -0.004           0.994       1.590e-02          0.4552
 433       8.715e-01       5.841e+00       1.887e-02           0.084          -0.003           0.997       1.877e-02          0.5388
 434       7.700e-01       5.841e+00       2.671e-02           0.059          -0.002           0.998       2.054e-02          0.6173
 435       6.604e-01       5.841e+00       3.244e-02           0.033          -0.000           0.999       2.113e-02          0.7103
 436       5.492e-01       5.841e+00       3.516e-02          -0.001           0.002           1.000       2.051e-02          0.8180
 437       4.428e-01       5.841e+00       3.371e-02          -0.055           0.003           0.998       1.873e-02          0.8450
 438       3.474e-01       5.841e+00       2.743e-02          -0.104           0.006           0.995       1.589e-02          0.8380
 439       2.686e-01       5.841e+00       1.859e-02          -0.142           0.008           0.990       1.212e-02          0.8593
 440       2.110e-01       5.841e+00       1.004e-02          -0.169           0.010           0.986       7.599e-03          1.0038
 441       1.778e-01       5.841e+00       4.547e-03          -0.115           0.009           0.993       2.563e-03          2.5320
Strip 35
 442       1.079e+00       6.009e+00      -3.975e-03           0.137          -0.005           0.991       1.976e-03          0.1378
 443       1.060e+00       6.009e+00      -1.326e-03           0.131          -0.005           0.991       5.807e-03          0.2306
 444       1.015e+00       6.009e+00       4.381e-03           0.119          -0.004           0.993       9.289e-03          0.3205
 445       9.477e-01       6.009e+00       1.205e-02           0.101          -0.004           0.995       1.222e-02          0.4011
 446       8.618e-01       6.009e+00       2.027e-02           0.080          -0.003           0.997       1.442e-02          0.4697
 447       7.623e-01       6.009e+00       2.756e-02           0.055          -0.002           0.998       1.579e-02          0.5342
 448       6.550e-01       6.009e+00       3.276e-02           0.029          -0.000           1.000       1.624e-02          0.6151
 449       5.461e-01       6.009e+00       3.500e-02          -0.005           0.002           1.000       1.576e-02          0.7126
 450       4.419e-01       6.009e+00       3.317e-02          -0.059           0.003           0.998       1.440e-02          0.7300
 451       3.485e-01       6.009e+00       2.666e-02          -0.108           0.006           0.994       1.222e-02          0.7094
 452       2.713e-01       6.009e+00       1.770e-02          -0.146           0.008           0.989       9.323e-03          0.7016
 453       2.149e-01       6.009e+00       9.115e-03          -0.173           0.010           0.985       5.846e-03          0.7666
 454       1.824e-01       6.009e+00       3.606e-03          -0.118           0.009           0.993       1.971e-03          1.9820
Strip 36
 455       1.069e+00       6.136e+00      -1.872e-03           0.134          -0.005           0.991       1.398e-03          0.1206
 456       1.049e+00       6.136e+00       6.755e-04           0.128          -0.005           0.992       4.109e-03          0.1983
 457       1.005e+00       6.136e+00       6.157e-03           0.116          -0.005           0.993       6.572e-03          0.2697
 458       9.390e-01       6.136e+00       1.350e-02           0.098          -0.004           0.995       8.644e-03          0.3309
 459       8.545e-01       6.136e+00       2.133e-02           0.077          -0.003           0.997       1.021e-02          0.3814
 460       7.566e-01       6.136e+00       2.821e-02           0.052          -0.002           0.999       1.117e-02          0.4294
 461       6.510e-01       6.136e+00       3.300e-02           0.026          -0.000           1.000       1.150e-02          0.4956
 462       5.438e-01       6.136e+00       3.488e-02          -0.008           0.001           1.000       1.116e-02          0.5818
 463       4.412e-01       6.136e+00       3.277e-02          -0.062           0.003           0.998       1.019e-02          0.5923
 464       3.493e-01       6.136e+00       2.608e-02          -0.111           0.006           0.994       8.655e-03          0.5649
 465       2.734e-01       6.136e+00       1.703e-02          -0.149           0.008           0.989       6.601e-03          0.5369
 466       2.178e-01       6.136e+00       8.413e-03          -0.176           0.010           0.984       4.139e-03          0.5319
 467       1.858e-01       6.136e+00       2.895e-03          -0.121           0.009           0.993       1.396e-03          1.4495
Strip 37
 468       1.061e+00       6.221e+00      -4.624e-04           0.131          -0.005           0.991       8.331e-04          0.0997
 469       1.042e+00       6.221e+00       2.018e-03           0.126          -0.005           0.992       2.449e-03          0.1558
 470       9.987e-01       6.221e+00       7.347e-03           0.113          -0.005           0.994       3.917e-03          0.2029
 471       9.332e-01       6.221e+00       1.448e-02           0.096          -0.004           0.995       5.152e-03          0.2425
 472       8.496e-01       6.221e+00       2.205e-02           0.075          -0.003           0.997       6.084e-03          0.2746
 473       7.527e-01       6.221e+00       2.864e-02           0.050          -0.002           0.999       6.661e-03          0.3059
 474       6.482e-01       6.221e+00       3.316e-02           0.024          -0.000           1.000       6.853e-03          0.3541
 475       5.422e-01       6.221e+00       3.480e-02          -0.010           0.001           1.000       6.653e-03          0.4234
 476       4.408e-01       6.221e+00       3.250e-02          -0.064           0.003           0.998       6.079e-03          0.4293
 477       3.499e-01       6.221e+00       2.569e-02          -0.113           0.006           0.994       5.161e-03          0.4044
 478       2.747e-01       6.221e+00       1.658e-02          -0.151           0.008           0.989       3.937e-03          0.3715
 479       2.198e-01       6.221e+00       7.943e-03          -0.178           0.010           0.984       2.469e-03          0.3182
 480       1.882e-01       6.221e+00       2.419e-03          -0.123           0.009           0.992       8.323e-04          0.9861
Strip 38
 481       1.058e+00       6.264e+00       2.450e-04           0.130          -0.005           0.991       2.768e-04          0.0734
 482       1.039e+00       6.264e+00       2.691e-03           0.125          -0.005           0.992       8.136e-04          0.0979
 483       9.954e-01       6.264e+00       7.944e-03           0.112          -0.005           0.994       1.301e-03          0.1224
 484       9.302e-01       6.264e+00       1.496e-02           0.095          -0.004           0.995       1.712e-03          0.1442
 485       8.471e-01       6.264e+00       2.240e-02           0.073          -0.003           0.997       2.021e-03          0.1619
 486       7.508e-01       6.264e+00       2.886e-02           0.049          -0.002           0.999       2.213e-03          0.1794
 487       6.469e-01       6.264e+00       3.324e-02           0.023          -0.000           1.000       2.277e-03          0.2079
 488       5.414e-01       6.264e+00       3.475e-02          -0.011           0.001           1.000       2.210e-03          0.2513
 489       4.406e-01       6.264e+00       3.236e-02          -0.065           0.003           0.998       2.020e-03          0.2546
 490       3.501e-01       6.264e+00       2.549e-02          -0.114           0.006           0.993       1.715e-03          0.2388
 491       2.754e-01       6.264e+00       1.636e-02          -0.152           0.008           0.988       1.308e-03          0.2167
 492       2.208e-01       6.264e+00       7.707e-03          -0.179           0.010           0.984       8.205e-04          0.1484
 493       1.893e-01       6.264e+00       2.179e-03          -0.124           0.009           0.992       2.766e-04          0.6288










