xflr5 v6.47

ELTA
T1-50.0 m/s-VLM2-Inviscid
QInf  =   50.000000 m/s
Alpha =    5.000000
Beta  =    0.000°
Phi   =    0.000°
Ctrl  =    0.000
CL    =    1.085383
Cy    =    0.000000
Cd    =    0.036616     ICd   =    0.036616     PCd   =    0.000000
Cl   = 4.67755e-16
Cm   =   -0.469517
ICn   =   -0.000000     PCn   =   -0.000000 
XCP   =    0.551375     YCP   =   -0.000000     ZCP   =    0.025184  
XNP   =    0.000000
Bending = 29957.169783

Main Wing
  y-span        Chord      Ai         Cl        PCd          ICd        CmGeom    CmAirf@chord/4    XTrtop    XTrBot      XCP       BM
   -6.2643     0.7716    -3.467    0.217487    0.000000    0.013017   -0.154842   -0.033841     0.0000    0.0000    0.4027    0.0000
   -6.2215     0.7780    -3.039    0.369414    0.000000    0.019584   -0.258881   -0.055784     0.0000    0.0000    0.3986    0.2367
   -6.1362     0.7908    -2.602    0.514931    0.000000    0.023387   -0.352272   -0.073831     0.0000    0.0000    0.3911    3.1268
   -6.0090     0.8098    -2.193    0.641046    0.000000    0.024547   -0.424935   -0.086478     0.0000    0.0000    0.3826   15.9138
   -5.8407     0.8351    -1.851    0.746704    0.000000    0.024130   -0.477020   -0.094685     0.0000    0.0000    0.3746   52.6987
   -5.6326     0.8662    -1.591    0.833981    0.000000    0.023168   -0.511419   -0.099767     0.0000    0.0000    0.3674   135.8167
   -5.3860     0.9032    -1.414    0.905893    0.000000    0.022366   -0.531698   -0.102839     0.0000    0.0000    0.3613   296.6688
   -5.1025     0.9456    -1.311    0.965330    0.000000    0.022088   -0.541146   -0.104664     0.0000    0.0000    0.3562   576.1133
   -4.7843     0.9933    -1.269    1.014618    0.000000    0.022469   -0.542472   -0.105720     0.0000    0.0000    0.3520   1024.4528
   -4.4333     1.0459    -1.276    1.055466    0.000000    0.023517   -0.537790   -0.106289     0.0000    0.0000    0.3485   1700.9770
   -4.0521     1.1030    -1.325    1.089040    0.000000    0.025188   -0.528715   -0.106536     0.0000    0.0000    0.3456   2672.9875
   -3.6431     1.1643    -1.407    1.116085    0.000000    0.027424   -0.516456   -0.106554     0.0000    0.0000    0.3432   4014.2242
   -3.2093     1.2292    -1.520    1.137016    0.000000    0.030167   -0.501909   -0.106391     0.0000    0.0000    0.3413   5802.6328
   -2.7536     1.2975    -1.659    1.151986    0.000000    0.033376   -0.485710   -0.106065     0.0000    0.0000    0.3398   8117.4538
   -2.2791     1.3686    -1.826    1.160906    0.000000    0.037021   -0.468287   -0.105570     0.0000    0.0000    0.3386   11035.6549
   -1.7890     1.4420    -2.023    1.163415    0.000000    0.041090   -0.449870   -0.104873     0.0000    0.0000    0.3378   14627.7801
   -1.2866     1.5173    -2.253    1.158794    0.000000    0.045603   -0.430496   -0.103907     0.0000    0.0000    0.3373   18953.3215
   -0.7755     1.5938    -2.533    1.145705    0.000000    0.050682   -0.409935   -0.102542     0.0000    0.0000    0.3371   24055.7359
   -0.2591     1.6712    -2.913    1.121298    0.000000    0.057053   -0.387353   -0.100430     0.0000    0.0000    0.3372   29957.1698
    0.2591     1.6712    -2.913    1.121298    0.000000    0.057053   -0.387353   -0.100430     0.0000    0.0000    0.3372   29956.3663
    0.7755     1.5938    -2.533    1.145705    0.000000    0.050682   -0.409935   -0.102542     0.0000    0.0000    0.3371   24054.9653
    1.2866     1.5173    -2.253    1.158794    0.000000    0.045603   -0.430496   -0.103907     0.0000    0.0000    0.3373   18952.6088
    1.7890     1.4420    -2.023    1.163415    0.000000    0.041090   -0.449870   -0.104873     0.0000    0.0000    0.3378   14627.1423
    2.2791     1.3686    -1.826    1.160906    0.000000    0.037021   -0.468287   -0.105570     0.0000    0.0000    0.3386   11035.1020
    2.7536     1.2975    -1.659    1.151986    0.000000    0.033376   -0.485710   -0.106065     0.0000    0.0000    0.3398   8116.9894
    3.2093     1.2292    -1.520    1.137016    0.000000    0.030167   -0.501909   -0.106391     0.0000    0.0000    0.3413   5802.2552
    3.6431     1.1643    -1.407    1.116085    0.000000    0.027424   -0.516456   -0.106554     0.0000    0.0000    0.3432   4013.9277
    4.0521     1.1030    -1.325    1.089040    0.000000    0.025188   -0.528715   -0.106536     0.0000    0.0000    0.3456   2672.7634
    4.4333     1.0459    -1.276    1.055466    0.000000    0.023517   -0.537790   -0.106289     0.0000    0.0000    0.3485   1700.8148
    4.7843     0.9933    -1.269    1.014618    0.000000    0.022469   -0.542472   -0.105720     0.0000    0.0000    0.3520   1024.3413
    5.1025     0.9456    -1.311    0.965330    0.000000    0.022088   -0.541146   -0.104664     0.0000    0.0000    0.3562   576.0411
    5.3860     0.9032    -1.414    0.905893    0.000000    0.022366   -0.531698   -0.102839     0.0000    0.0000    0.3613   296.6254
    5.6326     0.8662    -1.591    0.833981    0.000000    0.023168   -0.511419   -0.099767     0.0000    0.0000    0.3674   135.7932
    5.8407     0.8351    -1.851    0.746704    0.000000    0.024130   -0.477020   -0.094685     0.0000    0.0000    0.3746   52.6876
    6.0090     0.8098    -2.193    0.641046    0.000000    0.024547   -0.424935   -0.086478     0.0000    0.0000    0.3826   15.9095
    6.1362     0.7908    -2.602    0.514931    0.000000    0.023387   -0.352272   -0.073831     0.0000    0.0000    0.3911    3.1256
    6.2215     0.7780    -3.039    0.369414    0.000000    0.019584   -0.258881   -0.055784     0.0000    0.0000    0.3986    0.2366
    6.2643     0.7716    -3.467    0.217487    0.000000    0.013017   -0.154842   -0.033841     0.0000    0.0000    0.4027    0.0000


Main Wing Cp Coefficients
 Panel     CtrlPt.x        CtrlPt.y        CtrlPt.z       Nx      Ny       Nz        Area       Cp
Main WingCp Coefficients
Strip 1
   0       1.003e+00      -6.264e+00       1.802e-04           0.130           0.003           0.991       2.423e-04          0.0784
   1       9.867e-01      -6.264e+00       2.323e-03           0.125           0.003           0.992       7.124e-04          0.1055
   2       9.488e-01      -6.264e+00       6.925e-03           0.112           0.003           0.994       1.140e-03          0.1321
   3       8.918e-01      -6.264e+00       1.308e-02           0.095           0.003           0.995       1.499e-03          0.1557
   4       8.190e-01      -6.264e+00       1.959e-02           0.074           0.002           0.997       1.770e-03          0.1751
   5       7.346e-01      -6.264e+00       2.525e-02           0.049           0.001           0.999       1.938e-03          0.1943
   6       6.437e-01      -6.264e+00       2.909e-02           0.023          -0.001           1.000       1.994e-03          0.2251
   7       5.513e-01      -6.264e+00       3.042e-02          -0.011          -0.003           1.000       1.935e-03          0.2717
   8       4.630e-01      -6.264e+00       2.833e-02          -0.065          -0.005           0.998       1.769e-03          0.2765
   9       3.839e-01      -6.264e+00       2.233e-02          -0.114          -0.007           0.993       1.502e-03          0.2623
  10       3.184e-01      -6.264e+00       1.433e-02          -0.152          -0.010           0.988       1.146e-03          0.2441
  11       2.706e-01      -6.264e+00       6.757e-03          -0.178          -0.012           0.984       7.184e-04          0.1893
  12       2.430e-01      -6.264e+00       1.919e-03          -0.124          -0.010           0.992       2.422e-04          0.7425
Strip 2
  13       1.008e+00      -6.221e+00      -5.753e-04           0.132           0.003           0.991       7.315e-04          0.1052
  14       9.914e-01      -6.221e+00       1.607e-03           0.126           0.003           0.992       2.150e-03          0.1659
  15       9.531e-01      -6.221e+00       6.297e-03           0.114           0.003           0.994       3.439e-03          0.2175
  16       8.956e-01      -6.221e+00       1.257e-02           0.097           0.002           0.995       4.524e-03          0.2607
  17       8.222e-01      -6.221e+00       1.924e-02           0.075           0.002           0.997       5.341e-03          0.2960
  18       7.372e-01      -6.221e+00       2.506e-02           0.050           0.001           0.999       5.848e-03          0.3303
  19       6.454e-01      -6.221e+00       2.905e-02           0.024          -0.001           1.000       6.017e-03          0.3823
  20       5.524e-01      -6.221e+00       3.051e-02          -0.010          -0.003           1.000       5.841e-03          0.4559
  21       4.633e-01      -6.221e+00       2.852e-02          -0.064          -0.005           0.998       5.337e-03          0.4648
  22       3.835e-01      -6.221e+00       2.257e-02          -0.112          -0.007           0.994       4.531e-03          0.4435
  23       3.175e-01      -6.221e+00       1.459e-02          -0.150          -0.010           0.989       3.457e-03          0.4193
  24       2.693e-01      -6.221e+00       7.020e-03          -0.177          -0.012           0.984       2.168e-03          0.3921
  25       2.415e-01      -6.221e+00       2.178e-03          -0.123          -0.010           0.992       7.307e-04          1.1620
Strip 3
  26       1.018e+00      -6.136e+00      -2.081e-03           0.134           0.003           0.991       1.234e-03          0.1265
  27       1.001e+00      -6.136e+00       1.802e-04           0.128           0.002           0.992       3.627e-03          0.2091
  28       9.617e-01      -6.136e+00       5.046e-03           0.116           0.002           0.993       5.801e-03          0.2861
  29       9.032e-01      -6.136e+00       1.157e-02           0.099           0.002           0.995       7.630e-03          0.3527
  30       8.286e-01      -6.136e+00       1.854e-02           0.077           0.002           0.997       9.008e-03          0.4081
  31       7.422e-01      -6.136e+00       2.467e-02           0.053           0.001           0.999       9.862e-03          0.4608
  32       6.490e-01      -6.136e+00       2.897e-02           0.026          -0.001           1.000       1.015e-02          0.5318
  33       5.544e-01      -6.136e+00       3.069e-02          -0.007          -0.003           1.000       9.848e-03          0.6229
  34       4.639e-01      -6.136e+00       2.890e-02          -0.061          -0.005           0.998       8.998e-03          0.6383
  35       3.828e-01      -6.136e+00       2.305e-02          -0.110          -0.007           0.994       7.638e-03          0.6178
  36       3.157e-01      -6.136e+00       1.511e-02          -0.148          -0.010           0.989       5.826e-03          0.6040
  37       2.667e-01      -6.136e+00       7.543e-03          -0.175          -0.012           0.985       3.653e-03          0.6362
  38       2.385e-01      -6.136e+00       2.693e-03          -0.121          -0.010           0.993       1.232e-03          1.6958
Strip 4
  39       1.032e+00      -6.009e+00      -4.327e-03           0.138           0.002           0.990       1.757e-03          0.1439
  40       1.014e+00      -6.009e+00      -1.948e-03           0.132           0.002           0.991       5.166e-03          0.2415
  41       9.745e-01      -6.009e+00       3.180e-03           0.120           0.002           0.993       8.263e-03          0.3372
  42       9.146e-01      -6.009e+00       1.008e-02           0.103           0.002           0.995       1.087e-02          0.4236
  43       8.382e-01      -6.009e+00       1.749e-02           0.081           0.001           0.997       1.283e-02          0.4982
  44       7.498e-01      -6.009e+00       2.409e-02           0.056           0.001           0.998       1.404e-02          0.5684
  45       6.543e-01      -6.009e+00       2.884e-02           0.030          -0.001           1.000       1.445e-02          0.6548
  46       5.574e-01      -6.009e+00       3.096e-02          -0.004          -0.003           1.000       1.402e-02          0.7582
  47       4.648e-01      -6.009e+00       2.946e-02          -0.057          -0.005           0.998       1.281e-02          0.7824
  48       3.817e-01      -6.009e+00       2.377e-02          -0.106          -0.007           0.994       1.087e-02          0.7719
  49       3.131e-01      -6.009e+00       1.589e-02          -0.144          -0.009           0.989       8.290e-03          0.7835
  50       2.628e-01      -6.009e+00       8.323e-03          -0.171          -0.011           0.985       5.198e-03          0.8959
  51       2.339e-01      -6.009e+00       3.461e-03          -0.117          -0.010           0.993       1.753e-03          2.2883
Strip 5
  52       1.050e+00      -5.841e+00      -7.297e-03           0.142           0.002           0.990       2.310e-03          0.1575
  53       1.032e+00      -5.841e+00      -4.762e-03           0.136           0.002           0.991       6.789e-03          0.2664
  54       9.914e-01      -5.841e+00       7.123e-04           0.124           0.002           0.992       1.086e-02          0.3756
  55       9.297e-01      -5.841e+00       8.110e-03           0.107           0.002           0.994       1.428e-02          0.4769
  56       8.509e-01      -5.841e+00       1.611e-02           0.085           0.001           0.996       1.685e-02          0.5665
  57       7.597e-01      -5.841e+00       2.333e-02           0.061           0.000           0.998       1.845e-02          0.6510
  58       6.613e-01      -5.841e+00       2.867e-02           0.035          -0.001           0.999       1.898e-02          0.7503
  59       5.614e-01      -5.841e+00       3.131e-02           0.001          -0.003           1.000       1.841e-02          0.8648
  60       4.659e-01      -5.841e+00       3.020e-02          -0.053          -0.005           0.999       1.682e-02          0.9004
  61       3.803e-01      -5.841e+00       2.473e-02          -0.102          -0.007           0.995       1.427e-02          0.9062
  62       3.095e-01      -5.841e+00       1.692e-02          -0.140          -0.009           0.990       1.088e-02          0.9506
  63       2.577e-01      -5.841e+00       9.355e-03          -0.167          -0.011           0.986       6.822e-03          1.1497
  64       2.280e-01      -5.841e+00       4.477e-03          -0.113          -0.010           0.994       2.301e-03          2.8796
Strip 6
  65       1.074e+00      -5.633e+00      -1.097e-02           0.147           0.001           0.989       2.896e-03          0.1680
  66       1.055e+00      -5.633e+00      -8.244e-03           0.142           0.001           0.990       8.513e-03          0.2852
  67       1.012e+00      -5.633e+00      -2.341e-03           0.129           0.001           0.992       1.361e-02          0.4045
  68       9.483e-01      -5.633e+00       5.670e-03           0.112           0.001           0.994       1.790e-02          0.5166
  69       8.667e-01      -5.633e+00       1.440e-02           0.091           0.001           0.996       2.113e-02          0.6175
  70       7.720e-01      -5.633e+00       2.239e-02           0.066          -0.000           0.998       2.312e-02          0.7133
  71       6.700e-01      -5.633e+00       2.847e-02           0.040          -0.001           0.999       2.378e-02          0.8233
  72       5.664e-01      -5.633e+00       3.175e-02           0.006          -0.003           1.000       2.307e-02          0.9488
  73       4.673e-01      -5.633e+00       3.112e-02          -0.048          -0.005           0.999       2.107e-02          0.9972
  74       3.785e-01      -5.633e+00       2.591e-02          -0.097          -0.007           0.995       1.787e-02          1.0214
  75       3.051e-01      -5.633e+00       1.820e-02          -0.135          -0.009           0.991       1.362e-02          1.1005
  76       2.514e-01      -5.633e+00       1.063e-02          -0.162          -0.011           0.987       8.540e-03          1.3840
  77       2.206e-01      -5.633e+00       5.734e-03          -0.108          -0.010           0.994       2.881e-03          3.4316
Strip 7
  78       1.101e+00      -5.386e+00      -1.533e-02           0.153           0.000           0.988       3.522e-03          0.1759
  79       1.081e+00      -5.386e+00      -1.237e-02           0.147           0.000           0.989       1.035e-02          0.2995
  80       1.037e+00      -5.386e+00      -5.959e-03           0.135           0.001           0.991       1.655e-02          0.4261
  81       9.704e-01      -5.386e+00       2.779e-03           0.118           0.001           0.993       2.176e-02          0.5463
  82       8.853e-01      -5.386e+00       1.237e-02           0.096           0.000           0.995       2.568e-02          0.6558
  83       7.866e-01      -5.386e+00       2.127e-02           0.072          -0.000           0.997       2.811e-02          0.7605
  84       6.803e-01      -5.386e+00       2.822e-02           0.046          -0.002           0.999       2.890e-02          0.8797
  85       5.723e-01      -5.386e+00       3.227e-02           0.012          -0.003           1.000       2.803e-02          1.0154
  86       4.690e-01      -5.386e+00       3.221e-02          -0.042          -0.005           0.999       2.559e-02          1.0767
  87       3.765e-01      -5.386e+00       2.731e-02          -0.091          -0.007           0.996       2.170e-02          1.1195
  88       3.000e-01      -5.386e+00       1.971e-02          -0.129          -0.009           0.992       1.654e-02          1.2316
  89       2.440e-01      -5.386e+00       1.214e-02          -0.157          -0.011           0.988       1.037e-02          1.5929
  90       2.118e-01      -5.386e+00       7.224e-03          -0.102          -0.010           0.995       3.498e-03          3.9277
Strip 8
  91       1.132e+00      -5.103e+00      -2.033e-02           0.159          -0.000           0.987       4.188e-03          0.1820
  92       1.112e+00      -5.103e+00      -1.711e-02           0.153          -0.000           0.988       1.231e-02          0.3102
  93       1.066e+00      -5.103e+00      -1.012e-02           0.141           0.000           0.990       1.968e-02          0.4425
  94       9.958e-01      -5.103e+00      -5.435e-04           0.124           0.000           0.992       2.588e-02          0.5688
  95       9.067e-01      -5.103e+00       1.004e-02           0.102          -0.000           0.995       3.054e-02          0.6850
  96       8.034e-01      -5.103e+00       1.999e-02           0.078          -0.001           0.997       3.341e-02          0.7969
  97       6.921e-01      -5.103e+00       2.794e-02           0.052          -0.002           0.999       3.435e-02          0.9240
  98       5.791e-01      -5.103e+00       3.287e-02           0.018          -0.003           1.000       3.331e-02          1.0689
  99       4.710e-01      -5.103e+00       3.345e-02          -0.036          -0.005           0.999       3.040e-02          1.1423
 100       3.741e-01      -5.103e+00       2.892e-02          -0.085          -0.007           0.996       2.577e-02          1.2025
 101       2.940e-01      -5.103e+00       2.145e-02          -0.123          -0.009           0.992       1.964e-02          1.3449
 102       2.354e-01      -5.103e+00       1.388e-02          -0.151          -0.011           0.989       1.231e-02          1.7758
 103       2.017e-01      -5.103e+00       8.935e-03          -0.096          -0.009           0.995       4.154e-03          4.3641
Strip 9
 104       1.168e+00      -4.784e+00      -2.595e-02           0.165          -0.001           0.986       4.897e-03          0.1865
 105       1.146e+00      -4.784e+00      -2.243e-02           0.159          -0.001           0.987       1.439e-02          0.3184
 106       1.098e+00      -4.784e+00      -1.478e-02           0.147          -0.001           0.989       2.301e-02          0.4549
 107       1.024e+00      -4.784e+00      -4.275e-03           0.130          -0.000           0.991       3.025e-02          0.5860
 108       9.307e-01      -4.784e+00       7.425e-03           0.109          -0.001           0.994       3.569e-02          0.7075
 109       8.223e-01      -4.784e+00       1.854e-02           0.084          -0.001           0.996       3.904e-02          0.8253
 110       7.053e-01      -4.784e+00       2.763e-02           0.058          -0.002           0.998       4.014e-02          0.9591
 111       5.867e-01      -4.784e+00       3.354e-02           0.024          -0.003           1.000       3.892e-02          1.1123
 112       4.732e-01      -4.784e+00       3.486e-02          -0.030          -0.005           1.000       3.550e-02          1.1966
 113       3.714e-01      -4.784e+00       3.072e-02          -0.079          -0.007           0.997       3.009e-02          1.2726
 114       2.873e-01      -4.784e+00       2.340e-02          -0.117          -0.009           0.993       2.292e-02          1.4421
 115       2.258e-01      -4.784e+00       1.583e-02          -0.145          -0.011           0.989       1.436e-02          1.9342
 116       1.904e-01      -4.784e+00       1.086e-02          -0.090          -0.009           0.996       4.850e-03          4.7432
Strip 10
 117       1.207e+00      -4.433e+00      -3.215e-02           0.171          -0.002           0.985       5.645e-03          0.1900
 118       1.184e+00      -4.433e+00      -2.830e-02           0.165          -0.001           0.986       1.659e-02          0.3246
 119       1.133e+00      -4.433e+00      -1.993e-02           0.153          -0.001           0.988       2.653e-02          0.4645
 120       1.056e+00      -4.433e+00      -8.389e-03           0.136          -0.001           0.991       3.487e-02          0.5993
 121       9.572e-01      -4.433e+00       4.540e-03           0.115          -0.001           0.993       4.113e-02          0.7250
 122       8.431e-01      -4.433e+00       1.695e-02           0.090          -0.001           0.996       4.499e-02          0.8477
 123       7.200e-01      -4.433e+00       2.728e-02           0.064          -0.002           0.998       4.624e-02          0.9872
 124       5.950e-01      -4.433e+00       3.427e-02           0.030          -0.003           1.000       4.483e-02          1.1474
 125       4.756e-01      -4.433e+00       3.641e-02          -0.024          -0.005           1.000       4.087e-02          1.2415
 126       3.684e-01      -4.433e+00       3.272e-02          -0.073          -0.007           0.997       3.463e-02          1.3316
 127       2.799e-01      -4.433e+00       2.555e-02          -0.111          -0.009           0.994       2.638e-02          1.5248
 128       2.152e-01      -4.433e+00       1.799e-02          -0.139          -0.010           0.990       1.652e-02          2.0701
 129       1.779e-01      -4.433e+00       1.298e-02          -0.084          -0.009           0.996       5.582e-03          5.0690
Strip 11
 130       1.249e+00      -4.052e+00      -3.888e-02           0.177          -0.002           0.984       6.430e-03          0.1926
 131       1.225e+00      -4.052e+00      -3.468e-02           0.171          -0.002           0.985       1.890e-02          0.3293
 132       1.171e+00      -4.052e+00      -2.552e-02           0.159          -0.002           0.987       3.021e-02          0.4717
 133       1.090e+00      -4.052e+00      -1.286e-02           0.142          -0.001           0.990       3.970e-02          0.6094
 134       9.859e-01      -4.052e+00       1.406e-03           0.121          -0.001           0.993       4.683e-02          0.7385
 135       8.656e-01      -4.052e+00       1.522e-02           0.096          -0.002           0.995       5.122e-02          0.8651
 136       7.359e-01      -4.052e+00       2.690e-02           0.070          -0.002           0.998       5.264e-02          1.0094
 137       6.041e-01      -4.052e+00       3.508e-02           0.036          -0.003           0.999       5.101e-02          1.1758
 138       4.782e-01      -4.052e+00       3.809e-02          -0.018          -0.005           1.000       4.650e-02          1.2784
 139       3.652e-01      -4.052e+00       3.488e-02          -0.067          -0.007           0.998       3.939e-02          1.3807
 140       2.719e-01      -4.052e+00       2.789e-02          -0.105          -0.009           0.994       2.999e-02          1.5945
 141       2.036e-01      -4.052e+00       2.032e-02          -0.133          -0.010           0.991       1.879e-02          2.1853
 142       1.643e-01      -4.052e+00       1.528e-02          -0.078          -0.009           0.997       6.348e-03          5.3453
Strip 12
 143       1.294e+00      -3.643e+00      -4.610e-02           0.182          -0.003           0.983       7.244e-03          0.1945
 144       1.269e+00      -3.643e+00      -4.152e-02           0.177          -0.003           0.984       2.129e-02          0.3326
 145       1.212e+00      -3.643e+00      -3.152e-02           0.165          -0.002           0.986       3.403e-02          0.4769
 146       1.126e+00      -3.643e+00      -1.765e-02           0.148          -0.002           0.989       4.472e-02          0.6168
 147       1.017e+00      -3.643e+00      -1.956e-03           0.126          -0.002           0.992       5.275e-02          0.7486
 148       8.898e-01      -3.643e+00       1.337e-02           0.102          -0.002           0.995       5.768e-02          0.8784
 149       7.529e-01      -3.643e+00       2.650e-02           0.076          -0.003           0.997       5.926e-02          1.0267
 150       6.139e-01      -3.643e+00       3.594e-02           0.042          -0.004           0.999       5.743e-02          1.1982
 151       4.810e-01      -3.643e+00       3.989e-02          -0.012          -0.005           1.000       5.233e-02          1.3080
 152       3.618e-01      -3.643e+00       3.720e-02          -0.061          -0.007           0.998       4.432e-02          1.4207
 153       2.633e-01      -3.643e+00       3.040e-02          -0.100          -0.008           0.995       3.374e-02          1.6519
 154       1.913e-01      -3.643e+00       2.283e-02          -0.127          -0.010           0.992       2.113e-02          2.2808
 155       1.498e-01      -3.643e+00       1.775e-02          -0.072          -0.009           0.997       7.142e-03          5.5748
Strip 13
 156       1.343e+00      -3.209e+00      -5.375e-02           0.188          -0.004           0.982       8.080e-03          0.1957
 157       1.316e+00      -3.209e+00      -4.878e-02           0.182          -0.003           0.983       2.374e-02          0.3348
 158       1.256e+00      -3.209e+00      -3.789e-02           0.170          -0.003           0.985       3.795e-02          0.4804
 159       1.165e+00      -3.209e+00      -2.274e-02           0.153          -0.002           0.988       4.987e-02          0.6219
 160       1.050e+00      -3.209e+00      -5.522e-03           0.132          -0.002           0.991       5.881e-02          0.7557
 161       9.155e-01      -3.209e+00       1.141e-02           0.108          -0.002           0.994       6.430e-02          0.8880
 162       7.710e-01      -3.209e+00       2.607e-02           0.082          -0.003           0.997       6.606e-02          1.0393
 163       6.243e-01      -3.209e+00       3.685e-02           0.048          -0.004           0.999       6.400e-02          1.2150
 164       4.839e-01      -3.209e+00       4.180e-02          -0.006          -0.005           1.000       5.830e-02          1.3309
 165       3.581e-01      -3.209e+00       3.966e-02          -0.056          -0.006           0.998       4.936e-02          1.4522
 166       2.542e-01      -3.209e+00       3.306e-02          -0.094          -0.008           0.996       3.757e-02          1.6976
 167       1.781e-01      -3.209e+00       2.549e-02          -0.122          -0.010           0.992       2.352e-02          2.3575
 168       1.344e-01      -3.209e+00       2.037e-02          -0.066          -0.008           0.998       7.954e-03          5.7591
Strip 14
 169       1.393e+00      -2.754e+00      -6.180e-02           0.193          -0.004           0.981       8.926e-03          0.1962
 170       1.365e+00      -2.754e+00      -5.640e-02           0.187          -0.004           0.982       2.623e-02          0.3359
 171       1.302e+00      -2.754e+00      -4.457e-02           0.175          -0.003           0.985       4.193e-02          0.4822
 172       1.206e+00      -2.754e+00      -2.808e-02           0.158          -0.003           0.987       5.508e-02          0.6247
 173       1.084e+00      -2.754e+00      -9.269e-03           0.137          -0.003           0.991       6.495e-02          0.7598
 174       9.425e-01      -2.754e+00       9.340e-03           0.113          -0.003           0.994       7.100e-02          0.8939
 175       7.900e-01      -2.754e+00       2.561e-02           0.087          -0.003           0.996       7.294e-02          1.0476
 176       6.351e-01      -2.754e+00       3.781e-02           0.053          -0.004           0.999       7.065e-02          1.2265
 177       4.871e-01      -2.754e+00       4.381e-02          -0.001          -0.005           1.000       6.434e-02          1.3472
 178       3.543e-01      -2.754e+00       4.225e-02          -0.050          -0.006           0.999       5.446e-02          1.4753
 179       2.446e-01      -2.754e+00       3.585e-02          -0.089          -0.008           0.996       4.144e-02          1.7318
 180       1.643e-01      -2.754e+00       2.829e-02          -0.117          -0.010           0.993       2.595e-02          2.4155
 181       1.182e-01      -2.754e+00       2.312e-02          -0.061          -0.008           0.998       8.775e-03          5.8987
Strip 15
 182       1.446e+00      -2.279e+00      -7.018e-02           0.197          -0.005           0.980       9.770e-03          0.1962
 183       1.416e+00      -2.279e+00      -6.434e-02           0.192          -0.004           0.981       2.871e-02          0.3359
 184       1.349e+00      -2.279e+00      -5.153e-02           0.180          -0.004           0.984       4.589e-02          0.4823
 185       1.248e+00      -2.279e+00      -3.364e-02           0.163          -0.003           0.987       6.028e-02          0.6252
 186       1.120e+00      -2.279e+00      -1.317e-02           0.142          -0.003           0.990       7.108e-02          0.7610
 187       9.706e-01      -2.279e+00       7.189e-03           0.118          -0.003           0.993       7.769e-02          0.8962
 188       8.097e-01      -2.279e+00       2.514e-02           0.092          -0.003           0.996       7.980e-02          1.0515
 189       6.465e-01      -2.279e+00       3.880e-02           0.058          -0.004           0.998       7.728e-02          1.2326
 190       4.903e-01      -2.279e+00       4.591e-02           0.004          -0.005           1.000       7.036e-02          1.3568
 191       3.503e-01      -2.279e+00       4.494e-02          -0.045          -0.006           0.999       5.954e-02          1.4899
 192       2.346e-01      -2.279e+00       3.876e-02          -0.084          -0.008           0.996       4.530e-02          1.7543
 193       1.500e-01      -2.279e+00       3.120e-02          -0.112          -0.010           0.994       2.836e-02          2.4546
 194       1.013e-01      -2.279e+00       2.599e-02          -0.056          -0.008           0.998       9.593e-03          5.9931
Strip 16
 195       1.500e+00      -1.789e+00      -7.883e-02           0.202          -0.005           0.979       1.060e-02          0.1954
 196       1.469e+00      -1.789e+00      -7.254e-02           0.196          -0.005           0.981       3.114e-02          0.3346
 197       1.399e+00      -1.789e+00      -5.872e-02           0.184          -0.004           0.983       4.977e-02          0.4806
 198       1.292e+00      -1.789e+00      -3.939e-02           0.167          -0.004           0.986       6.538e-02          0.6232
 199       1.157e+00      -1.789e+00      -1.720e-02           0.146          -0.003           0.989       7.708e-02          0.7591
 200       9.996e-01      -1.789e+00       4.968e-03           0.122          -0.003           0.993       8.424e-02          0.8946
 201       8.302e-01      -1.789e+00       2.466e-02           0.096          -0.003           0.995       8.652e-02          1.0506
 202       6.582e-01      -1.789e+00       3.983e-02           0.063          -0.004           0.998       8.378e-02          1.2330
 203       4.937e-01      -1.789e+00       4.807e-02           0.009          -0.005           1.000       7.626e-02          1.3593
 204       3.462e-01      -1.789e+00       4.772e-02          -0.041          -0.006           0.999       6.452e-02          1.4955
 205       2.243e-01      -1.789e+00       4.177e-02          -0.080          -0.008           0.997       4.908e-02          1.7646
 206       1.352e-01      -1.789e+00       3.420e-02          -0.108          -0.009           0.994       3.072e-02          2.4737
 207       8.385e-02      -1.789e+00       2.895e-02          -0.052          -0.008           0.999       1.039e-02          6.0401
Strip 17
 208       1.556e+00      -1.287e+00      -8.770e-02           0.206          -0.006           0.979       1.139e-02          0.1938
 209       1.523e+00      -1.287e+00      -8.094e-02           0.200          -0.005           0.980       3.348e-02          0.3319
 210       1.449e+00      -1.287e+00      -6.609e-02           0.188          -0.005           0.982       5.351e-02          0.4767
 211       1.337e+00      -1.287e+00      -4.528e-02           0.172          -0.004           0.985       7.029e-02          0.6184
 212       1.195e+00      -1.287e+00      -2.133e-02           0.150          -0.004           0.989       8.286e-02          0.7535
 213       1.029e+00      -1.287e+00       2.692e-03           0.126          -0.003           0.992       9.055e-02          0.8885
 214       8.511e-01      -1.287e+00       2.416e-02           0.100          -0.004           0.995       9.298e-02          1.0443
 215       6.702e-01      -1.287e+00       4.089e-02           0.067          -0.004           0.998       9.003e-02          1.2270
 216       4.971e-01      -1.287e+00       5.028e-02           0.013          -0.005           1.000       8.192e-02          1.3540
 217       3.420e-01      -1.287e+00       5.057e-02          -0.037          -0.006           0.999       6.929e-02          1.4912
 218       2.138e-01      -1.287e+00       4.485e-02          -0.076          -0.008           0.997       5.271e-02          1.7614
 219       1.200e-01      -1.287e+00       3.728e-02          -0.103          -0.009           0.995       3.298e-02          2.4713
 220       6.599e-02      -1.287e+00       3.198e-02          -0.048          -0.008           0.999       1.116e-02          6.0357
Strip 18
 221       1.613e+00      -7.755e-01      -9.672e-02           0.209          -0.006           0.978       1.214e-02          0.1911
 222       1.579e+00      -7.755e-01      -8.949e-02           0.204          -0.006           0.979       3.568e-02          0.3272
 223       1.500e+00      -7.755e-01      -7.359e-02           0.192          -0.005           0.981       5.702e-02          0.4700
 224       1.383e+00      -7.755e-01      -5.127e-02           0.175          -0.004           0.985       7.490e-02          0.6097
 225       1.233e+00      -7.755e-01      -2.553e-02           0.154          -0.004           0.988       8.828e-02          0.7432
 226       1.060e+00      -7.755e-01       3.751e-04           0.130          -0.004           0.992       9.647e-02          0.8771
 227       8.724e-01      -7.755e-01       2.365e-02           0.104          -0.004           0.995       9.905e-02          1.0318
 228       6.824e-01      -7.755e-01       4.197e-02           0.071          -0.004           0.997       9.589e-02          1.2135
 229       5.006e-01      -7.755e-01       5.253e-02           0.017          -0.005           1.000       8.724e-02          1.3397
 230       3.377e-01      -7.755e-01       5.347e-02          -0.033          -0.006           0.999       7.378e-02          1.4755
 231       2.030e-01      -7.755e-01       4.798e-02          -0.072          -0.008           0.997       5.611e-02          1.7425
 232       1.045e-01      -7.755e-01       4.042e-02          -0.100          -0.009           0.995       3.511e-02          2.4438
 233       4.781e-02      -7.755e-01       3.507e-02          -0.044          -0.008           0.999       1.189e-02          5.9720
Strip 19
 234       1.670e+00      -2.591e-01      -1.058e-01           0.213          -0.006           0.977       1.283e-02          0.1858
 235       1.634e+00      -2.591e-01      -9.813e-02           0.207          -0.006           0.978       3.769e-02          0.3181
 236       1.552e+00      -2.591e-01      -8.116e-02           0.195          -0.005           0.981       6.023e-02          0.4573
 237       1.429e+00      -2.591e-01      -5.732e-02           0.179          -0.005           0.984       7.911e-02          0.5943
 238       1.272e+00      -2.591e-01      -2.978e-02           0.157          -0.004           0.988       9.324e-02          0.7260
 239       1.090e+00      -2.591e-01      -1.965e-03           0.133          -0.004           0.991       1.019e-01          0.8585
 240       8.939e-01      -2.591e-01       2.314e-02           0.108          -0.004           0.994       1.046e-01          1.0119
 241       6.947e-01      -2.591e-01       4.305e-02           0.074          -0.004           0.997       1.012e-01          1.1916
 242       5.041e-01      -2.591e-01       5.481e-02           0.020          -0.005           1.000       9.210e-02          1.3148
 243       3.333e-01      -2.591e-01       5.641e-02          -0.029          -0.006           1.000       7.787e-02          1.4454
 244       1.922e-01      -2.591e-01       5.115e-02          -0.068          -0.008           0.998       5.921e-02          1.7028
 245       8.886e-02      -2.591e-01       4.358e-02          -0.096          -0.009           0.995       3.705e-02          2.3814
 246       2.944e-02      -2.591e-01       3.819e-02          -0.040          -0.008           0.999       1.255e-02          5.8247
Strip 20
 247       1.670e+00       2.591e-01      -1.058e-01           0.213           0.006           0.977       1.283e-02          0.1858
 248       1.634e+00       2.591e-01      -9.813e-02           0.207           0.006           0.978       3.769e-02          0.3181
 249       1.552e+00       2.591e-01      -8.116e-02           0.195           0.005           0.981       6.023e-02          0.4573
 250       1.429e+00       2.591e-01      -5.732e-02           0.179           0.005           0.984       7.911e-02          0.5943
 251       1.272e+00       2.591e-01      -2.978e-02           0.157           0.004           0.988       9.324e-02          0.7260
 252       1.090e+00       2.591e-01      -1.965e-03           0.133           0.004           0.991       1.019e-01          0.8585
 253       8.939e-01       2.591e-01       2.314e-02           0.108           0.004           0.994       1.046e-01          1.0119
 254       6.947e-01       2.591e-01       4.305e-02           0.074           0.004           0.997       1.012e-01          1.1916
 255       5.041e-01       2.591e-01       5.481e-02           0.020           0.005           1.000       9.210e-02          1.3148
 256       3.333e-01       2.591e-01       5.641e-02          -0.029           0.006           1.000       7.787e-02          1.4454
 257       1.922e-01       2.591e-01       5.115e-02          -0.068           0.008           0.998       5.921e-02          1.7028
 258       8.886e-02       2.591e-01       4.358e-02          -0.096           0.009           0.995       3.705e-02          2.3814
 259       2.944e-02       2.591e-01       3.819e-02          -0.040           0.008           0.999       1.255e-02          5.8247
Strip 21
 260       1.613e+00       7.755e-01      -9.672e-02           0.209           0.006           0.978       1.214e-02          0.1911
 261       1.579e+00       7.755e-01      -8.949e-02           0.204           0.006           0.979       3.568e-02          0.3272
 262       1.500e+00       7.755e-01      -7.359e-02           0.192           0.005           0.981       5.702e-02          0.4700
 263       1.383e+00       7.755e-01      -5.127e-02           0.175           0.004           0.985       7.490e-02          0.6097
 264       1.233e+00       7.755e-01      -2.553e-02           0.154           0.004           0.988       8.828e-02          0.7432
 265       1.060e+00       7.755e-01       3.751e-04           0.130           0.004           0.992       9.647e-02          0.8771
 266       8.724e-01       7.755e-01       2.365e-02           0.104           0.004           0.995       9.905e-02          1.0318
 267       6.824e-01       7.755e-01       4.197e-02           0.071           0.004           0.997       9.589e-02          1.2135
 268       5.006e-01       7.755e-01       5.253e-02           0.017           0.005           1.000       8.724e-02          1.3397
 269       3.377e-01       7.755e-01       5.347e-02          -0.033           0.006           0.999       7.378e-02          1.4755
 270       2.030e-01       7.755e-01       4.798e-02          -0.072           0.008           0.997       5.611e-02          1.7425
 271       1.045e-01       7.755e-01       4.042e-02          -0.100           0.009           0.995       3.511e-02          2.4438
 272       4.781e-02       7.755e-01       3.507e-02          -0.044           0.008           0.999       1.189e-02          5.9720
Strip 22
 273       1.556e+00       1.287e+00      -8.770e-02           0.206           0.006           0.979       1.139e-02          0.1938
 274       1.523e+00       1.287e+00      -8.094e-02           0.200           0.005           0.980       3.348e-02          0.3319
 275       1.449e+00       1.287e+00      -6.609e-02           0.188           0.005           0.982       5.351e-02          0.4767
 276       1.337e+00       1.287e+00      -4.528e-02           0.172           0.004           0.985       7.029e-02          0.6184
 277       1.195e+00       1.287e+00      -2.133e-02           0.150           0.004           0.989       8.286e-02          0.7535
 278       1.029e+00       1.287e+00       2.692e-03           0.126           0.003           0.992       9.055e-02          0.8885
 279       8.511e-01       1.287e+00       2.416e-02           0.100           0.004           0.995       9.298e-02          1.0443
 280       6.702e-01       1.287e+00       4.089e-02           0.067           0.004           0.998       9.003e-02          1.2270
 281       4.971e-01       1.287e+00       5.028e-02           0.013           0.005           1.000       8.192e-02          1.3540
 282       3.420e-01       1.287e+00       5.057e-02          -0.037           0.006           0.999       6.929e-02          1.4912
 283       2.138e-01       1.287e+00       4.485e-02          -0.076           0.008           0.997       5.271e-02          1.7614
 284       1.200e-01       1.287e+00       3.728e-02          -0.103           0.009           0.995       3.298e-02          2.4713
 285       6.599e-02       1.287e+00       3.198e-02          -0.048           0.008           0.999       1.116e-02          6.0357
Strip 23
 286       1.500e+00       1.789e+00      -7.883e-02           0.202           0.005           0.979       1.060e-02          0.1954
 287       1.469e+00       1.789e+00      -7.254e-02           0.196           0.005           0.981       3.114e-02          0.3346
 288       1.399e+00       1.789e+00      -5.872e-02           0.184           0.004           0.983       4.977e-02          0.4806
 289       1.292e+00       1.789e+00      -3.939e-02           0.167           0.004           0.986       6.538e-02          0.6232
 290       1.157e+00       1.789e+00      -1.720e-02           0.146           0.003           0.989       7.708e-02          0.7591
 291       9.996e-01       1.789e+00       4.968e-03           0.122           0.003           0.993       8.424e-02          0.8946
 292       8.302e-01       1.789e+00       2.466e-02           0.096           0.003           0.995       8.652e-02          1.0506
 293       6.582e-01       1.789e+00       3.983e-02           0.063           0.004           0.998       8.378e-02          1.2330
 294       4.937e-01       1.789e+00       4.807e-02           0.009           0.005           1.000       7.626e-02          1.3593
 295       3.462e-01       1.789e+00       4.772e-02          -0.041           0.006           0.999       6.452e-02          1.4955
 296       2.243e-01       1.789e+00       4.177e-02          -0.080           0.008           0.997       4.908e-02          1.7646
 297       1.352e-01       1.789e+00       3.420e-02          -0.108           0.009           0.994       3.072e-02          2.4737
 298       8.385e-02       1.789e+00       2.895e-02          -0.052           0.008           0.999       1.039e-02          6.0401
Strip 24
 299       1.446e+00       2.279e+00      -7.018e-02           0.197           0.005           0.980       9.770e-03          0.1962
 300       1.416e+00       2.279e+00      -6.434e-02           0.192           0.004           0.981       2.871e-02          0.3359
 301       1.349e+00       2.279e+00      -5.153e-02           0.180           0.004           0.984       4.589e-02          0.4823
 302       1.248e+00       2.279e+00      -3.364e-02           0.163           0.003           0.987       6.028e-02          0.6252
 303       1.120e+00       2.279e+00      -1.317e-02           0.142           0.003           0.990       7.108e-02          0.7610
 304       9.706e-01       2.279e+00       7.189e-03           0.118           0.003           0.993       7.769e-02          0.8962
 305       8.097e-01       2.279e+00       2.514e-02           0.092           0.003           0.996       7.980e-02          1.0515
 306       6.465e-01       2.279e+00       3.880e-02           0.058           0.004           0.998       7.728e-02          1.2326
 307       4.903e-01       2.279e+00       4.591e-02           0.004           0.005           1.000       7.036e-02          1.3568
 308       3.503e-01       2.279e+00       4.494e-02          -0.045           0.006           0.999       5.954e-02          1.4899
 309       2.346e-01       2.279e+00       3.876e-02          -0.084           0.008           0.996       4.530e-02          1.7543
 310       1.500e-01       2.279e+00       3.120e-02          -0.112           0.010           0.994       2.836e-02          2.4546
 311       1.013e-01       2.279e+00       2.599e-02          -0.056           0.008           0.998       9.593e-03          5.9931
Strip 25
 312       1.393e+00       2.754e+00      -6.180e-02           0.193           0.004           0.981       8.926e-03          0.1962
 313       1.365e+00       2.754e+00      -5.640e-02           0.187           0.004           0.982       2.623e-02          0.3359
 314       1.302e+00       2.754e+00      -4.457e-02           0.175           0.003           0.985       4.193e-02          0.4822
 315       1.206e+00       2.754e+00      -2.808e-02           0.158           0.003           0.987       5.508e-02          0.6247
 316       1.084e+00       2.754e+00      -9.269e-03           0.137           0.003           0.991       6.495e-02          0.7598
 317       9.425e-01       2.754e+00       9.340e-03           0.113           0.003           0.994       7.100e-02          0.8939
 318       7.900e-01       2.754e+00       2.561e-02           0.087           0.003           0.996       7.294e-02          1.0476
 319       6.351e-01       2.754e+00       3.781e-02           0.053           0.004           0.999       7.065e-02          1.2265
 320       4.871e-01       2.754e+00       4.381e-02          -0.001           0.005           1.000       6.434e-02          1.3472
 321       3.543e-01       2.754e+00       4.225e-02          -0.050           0.006           0.999       5.446e-02          1.4753
 322       2.446e-01       2.754e+00       3.585e-02          -0.089           0.008           0.996       4.144e-02          1.7318
 323       1.643e-01       2.754e+00       2.829e-02          -0.117           0.010           0.993       2.595e-02          2.4155
 324       1.182e-01       2.754e+00       2.312e-02          -0.061           0.008           0.998       8.775e-03          5.8987
Strip 26
 325       1.343e+00       3.209e+00      -5.375e-02           0.188           0.004           0.982       8.080e-03          0.1957
 326       1.316e+00       3.209e+00      -4.878e-02           0.182           0.003           0.983       2.374e-02          0.3348
 327       1.256e+00       3.209e+00      -3.789e-02           0.170           0.003           0.985       3.795e-02          0.4804
 328       1.165e+00       3.209e+00      -2.274e-02           0.153           0.002           0.988       4.987e-02          0.6219
 329       1.050e+00       3.209e+00      -5.522e-03           0.132           0.002           0.991       5.881e-02          0.7557
 330       9.155e-01       3.209e+00       1.141e-02           0.108           0.002           0.994       6.430e-02          0.8880
 331       7.710e-01       3.209e+00       2.607e-02           0.082           0.003           0.997       6.606e-02          1.0393
 332       6.243e-01       3.209e+00       3.685e-02           0.048           0.004           0.999       6.400e-02          1.2150
 333       4.839e-01       3.209e+00       4.180e-02          -0.006           0.005           1.000       5.830e-02          1.3309
 334       3.581e-01       3.209e+00       3.966e-02          -0.056           0.006           0.998       4.936e-02          1.4522
 335       2.542e-01       3.209e+00       3.306e-02          -0.094           0.008           0.996       3.757e-02          1.6976
 336       1.781e-01       3.209e+00       2.549e-02          -0.122           0.010           0.992       2.352e-02          2.3575
 337       1.344e-01       3.209e+00       2.037e-02          -0.066           0.008           0.998       7.954e-03          5.7591
Strip 27
 338       1.294e+00       3.643e+00      -4.610e-02           0.182           0.003           0.983       7.244e-03          0.1945
 339       1.269e+00       3.643e+00      -4.152e-02           0.177           0.003           0.984       2.129e-02          0.3326
 340       1.212e+00       3.643e+00      -3.152e-02           0.165           0.002           0.986       3.403e-02          0.4769
 341       1.126e+00       3.643e+00      -1.765e-02           0.148           0.002           0.989       4.472e-02          0.6168
 342       1.017e+00       3.643e+00      -1.956e-03           0.126           0.002           0.992       5.275e-02          0.7486
 343       8.898e-01       3.643e+00       1.337e-02           0.102           0.002           0.995       5.768e-02          0.8784
 344       7.529e-01       3.643e+00       2.650e-02           0.076           0.003           0.997       5.926e-02          1.0267
 345       6.139e-01       3.643e+00       3.594e-02           0.042           0.004           0.999       5.743e-02          1.1982
 346       4.810e-01       3.643e+00       3.989e-02          -0.012           0.005           1.000       5.233e-02          1.3080
 347       3.618e-01       3.643e+00       3.720e-02          -0.061           0.007           0.998       4.432e-02          1.4207
 348       2.633e-01       3.643e+00       3.040e-02          -0.100           0.008           0.995       3.374e-02          1.6519
 349       1.913e-01       3.643e+00       2.283e-02          -0.127           0.010           0.992       2.113e-02          2.2808
 350       1.498e-01       3.643e+00       1.775e-02          -0.072           0.009           0.997       7.142e-03          5.5748
Strip 28
 351       1.249e+00       4.052e+00      -3.888e-02           0.177           0.002           0.984       6.430e-03          0.1926
 352       1.225e+00       4.052e+00      -3.468e-02           0.171           0.002           0.985       1.890e-02          0.3293
 353       1.171e+00       4.052e+00      -2.552e-02           0.159           0.002           0.987       3.021e-02          0.4717
 354       1.090e+00       4.052e+00      -1.286e-02           0.142           0.001           0.990       3.970e-02          0.6094
 355       9.859e-01       4.052e+00       1.406e-03           0.121           0.001           0.993       4.683e-02          0.7385
 356       8.656e-01       4.052e+00       1.522e-02           0.096           0.002           0.995       5.122e-02          0.8651
 357       7.359e-01       4.052e+00       2.690e-02           0.070           0.002           0.998       5.264e-02          1.0094
 358       6.041e-01       4.052e+00       3.508e-02           0.036           0.003           0.999       5.101e-02          1.1758
 359       4.782e-01       4.052e+00       3.809e-02          -0.018           0.005           1.000       4.650e-02          1.2784
 360       3.652e-01       4.052e+00       3.488e-02          -0.067           0.007           0.998       3.939e-02          1.3807
 361       2.719e-01       4.052e+00       2.789e-02          -0.105           0.009           0.994       2.999e-02          1.5945
 362       2.036e-01       4.052e+00       2.032e-02          -0.133           0.010           0.991       1.879e-02          2.1853
 363       1.643e-01       4.052e+00       1.528e-02          -0.078           0.009           0.997       6.348e-03          5.3453
Strip 29
 364       1.207e+00       4.433e+00      -3.215e-02           0.171           0.002           0.985       5.645e-03          0.1900
 365       1.184e+00       4.433e+00      -2.830e-02           0.165           0.001           0.986       1.659e-02          0.3246
 366       1.133e+00       4.433e+00      -1.993e-02           0.153           0.001           0.988       2.653e-02          0.4645
 367       1.056e+00       4.433e+00      -8.389e-03           0.136           0.001           0.991       3.487e-02          0.5993
 368       9.572e-01       4.433e+00       4.540e-03           0.115           0.001           0.993       4.113e-02          0.7250
 369       8.431e-01       4.433e+00       1.695e-02           0.090           0.001           0.996       4.499e-02          0.8477
 370       7.200e-01       4.433e+00       2.728e-02           0.064           0.002           0.998       4.624e-02          0.9872
 371       5.950e-01       4.433e+00       3.427e-02           0.030           0.003           1.000       4.483e-02          1.1474
 372       4.756e-01       4.433e+00       3.641e-02          -0.024           0.005           1.000       4.087e-02          1.2415
 373       3.684e-01       4.433e+00       3.272e-02          -0.073           0.007           0.997       3.463e-02          1.3316
 374       2.799e-01       4.433e+00       2.555e-02          -0.111           0.009           0.994       2.638e-02          1.5248
 375       2.152e-01       4.433e+00       1.799e-02          -0.139           0.010           0.990       1.652e-02          2.0701
 376       1.779e-01       4.433e+00       1.298e-02          -0.084           0.009           0.996       5.582e-03          5.0690
Strip 30
 377       1.168e+00       4.784e+00      -2.595e-02           0.165           0.001           0.986       4.897e-03          0.1865
 378       1.146e+00       4.784e+00      -2.243e-02           0.159           0.001           0.987       1.439e-02          0.3184
 379       1.098e+00       4.784e+00      -1.478e-02           0.147           0.001           0.989       2.301e-02          0.4549
 380       1.024e+00       4.784e+00      -4.275e-03           0.130           0.000           0.991       3.025e-02          0.5860
 381       9.307e-01       4.784e+00       7.425e-03           0.109           0.001           0.994       3.569e-02          0.7075
 382       8.223e-01       4.784e+00       1.854e-02           0.084           0.001           0.996       3.904e-02          0.8253
 383       7.053e-01       4.784e+00       2.763e-02           0.058           0.002           0.998       4.014e-02          0.9591
 384       5.867e-01       4.784e+00       3.354e-02           0.024           0.003           1.000       3.892e-02          1.1123
 385       4.732e-01       4.784e+00       3.486e-02          -0.030           0.005           1.000       3.550e-02          1.1966
 386       3.714e-01       4.784e+00       3.072e-02          -0.079           0.007           0.997       3.009e-02          1.2726
 387       2.873e-01       4.784e+00       2.340e-02          -0.117           0.009           0.993       2.292e-02          1.4421
 388       2.258e-01       4.784e+00       1.583e-02          -0.145           0.011           0.989       1.436e-02          1.9342
 389       1.904e-01       4.784e+00       1.086e-02          -0.090           0.009           0.996       4.850e-03          4.7432
Strip 31
 390       1.132e+00       5.103e+00      -2.033e-02           0.159           0.000           0.987       4.188e-03          0.1820
 391       1.112e+00       5.103e+00      -1.711e-02           0.153           0.000           0.988       1.231e-02          0.3102
 392       1.066e+00       5.103e+00      -1.012e-02           0.141          -0.000           0.990       1.968e-02          0.4425
 393       9.958e-01       5.103e+00      -5.435e-04           0.124          -0.000           0.992       2.588e-02          0.5688
 394       9.067e-01       5.103e+00       1.004e-02           0.102           0.000           0.995       3.054e-02          0.6850
 395       8.034e-01       5.103e+00       1.999e-02           0.078           0.001           0.997       3.341e-02          0.7969
 396       6.921e-01       5.103e+00       2.794e-02           0.052           0.002           0.999       3.435e-02          0.9240
 397       5.791e-01       5.103e+00       3.287e-02           0.018           0.003           1.000       3.331e-02          1.0689
 398       4.710e-01       5.103e+00       3.345e-02          -0.036           0.005           0.999       3.040e-02          1.1423
 399       3.741e-01       5.103e+00       2.892e-02          -0.085           0.007           0.996       2.577e-02          1.2025
 400       2.940e-01       5.103e+00       2.145e-02          -0.123           0.009           0.992       1.964e-02          1.3449
 401       2.354e-01       5.103e+00       1.388e-02          -0.151           0.011           0.989       1.231e-02          1.7758
 402       2.017e-01       5.103e+00       8.935e-03          -0.096           0.009           0.995       4.154e-03          4.3641
Strip 32
 403       1.101e+00       5.386e+00      -1.533e-02           0.153          -0.000           0.988       3.522e-03          0.1759
 404       1.081e+00       5.386e+00      -1.237e-02           0.147          -0.000           0.989       1.035e-02          0.2995
 405       1.037e+00       5.386e+00      -5.959e-03           0.135          -0.001           0.991       1.655e-02          0.4261
 406       9.704e-01       5.386e+00       2.779e-03           0.118          -0.001           0.993       2.176e-02          0.5463
 407       8.853e-01       5.386e+00       1.237e-02           0.096          -0.000           0.995       2.568e-02          0.6558
 408       7.866e-01       5.386e+00       2.127e-02           0.072           0.000           0.997       2.811e-02          0.7605
 409       6.803e-01       5.386e+00       2.822e-02           0.046           0.002           0.999       2.890e-02          0.8797
 410       5.723e-01       5.386e+00       3.227e-02           0.012           0.003           1.000       2.803e-02          1.0154
 411       4.690e-01       5.386e+00       3.221e-02          -0.042           0.005           0.999       2.559e-02          1.0767
 412       3.765e-01       5.386e+00       2.731e-02          -0.091           0.007           0.996       2.170e-02          1.1195
 413       3.000e-01       5.386e+00       1.971e-02          -0.129           0.009           0.992       1.654e-02          1.2316
 414       2.440e-01       5.386e+00       1.214e-02          -0.157           0.011           0.988       1.037e-02          1.5929
 415       2.118e-01       5.386e+00       7.224e-03          -0.102           0.010           0.995       3.498e-03          3.9277
Strip 33
 416       1.074e+00       5.633e+00      -1.097e-02           0.147          -0.001           0.989       2.896e-03          0.1680
 417       1.055e+00       5.633e+00      -8.244e-03           0.142          -0.001           0.990       8.513e-03          0.2852
 418       1.012e+00       5.633e+00      -2.341e-03           0.129          -0.001           0.992       1.361e-02          0.4045
 419       9.483e-01       5.633e+00       5.670e-03           0.112          -0.001           0.994       1.790e-02          0.5166
 420       8.667e-01       5.633e+00       1.440e-02           0.091          -0.001           0.996       2.113e-02          0.6175
 421       7.720e-01       5.633e+00       2.239e-02           0.066           0.000           0.998       2.312e-02          0.7133
 422       6.700e-01       5.633e+00       2.847e-02           0.040           0.001           0.999       2.378e-02          0.8233
 423       5.664e-01       5.633e+00       3.175e-02           0.006           0.003           1.000       2.307e-02          0.9488
 424       4.673e-01       5.633e+00       3.112e-02          -0.048           0.005           0.999       2.107e-02          0.9972
 425       3.785e-01       5.633e+00       2.591e-02          -0.097           0.007           0.995       1.787e-02          1.0214
 426       3.051e-01       5.633e+00       1.820e-02          -0.135           0.009           0.991       1.362e-02          1.1005
 427       2.514e-01       5.633e+00       1.063e-02          -0.162           0.011           0.987       8.540e-03          1.3840
 428       2.206e-01       5.633e+00       5.734e-03          -0.108           0.010           0.994       2.881e-03          3.4316
Strip 34
 429       1.050e+00       5.841e+00      -7.297e-03           0.142          -0.002           0.990       2.310e-03          0.1575
 430       1.032e+00       5.841e+00      -4.762e-03           0.136          -0.002           0.991       6.789e-03          0.2664
 431       9.914e-01       5.841e+00       7.123e-04           0.124          -0.002           0.992       1.086e-02          0.3756
 432       9.297e-01       5.841e+00       8.110e-03           0.107          -0.002           0.994       1.428e-02          0.4769
 433       8.509e-01       5.841e+00       1.611e-02           0.085          -0.001           0.996       1.685e-02          0.5665
 434       7.597e-01       5.841e+00       2.333e-02           0.061          -0.000           0.998       1.845e-02          0.6510
 435       6.613e-01       5.841e+00       2.867e-02           0.035           0.001           0.999       1.898e-02          0.7503
 436       5.614e-01       5.841e+00       3.131e-02           0.001           0.003           1.000       1.841e-02          0.8648
 437       4.659e-01       5.841e+00       3.020e-02          -0.053           0.005           0.999       1.682e-02          0.9004
 438       3.803e-01       5.841e+00       2.473e-02          -0.102           0.007           0.995       1.427e-02          0.9062
 439       3.095e-01       5.841e+00       1.692e-02          -0.140           0.009           0.990       1.088e-02          0.9506
 440       2.577e-01       5.841e+00       9.355e-03          -0.167           0.011           0.986       6.822e-03          1.1497
 441       2.280e-01       5.841e+00       4.477e-03          -0.113           0.010           0.994       2.301e-03          2.8796
Strip 35
 442       1.032e+00       6.009e+00      -4.327e-03           0.138          -0.002           0.990       1.757e-03          0.1439
 443       1.014e+00       6.009e+00      -1.948e-03           0.132          -0.002           0.991       5.166e-03          0.2415
 444       9.745e-01       6.009e+00       3.180e-03           0.120          -0.002           0.993       8.263e-03          0.3372
 445       9.146e-01       6.009e+00       1.008e-02           0.103          -0.002           0.995       1.087e-02          0.4236
 446       8.382e-01       6.009e+00       1.749e-02           0.081          -0.001           0.997       1.283e-02          0.4982
 447       7.498e-01       6.009e+00       2.409e-02           0.056          -0.001           0.998       1.404e-02          0.5684
 448       6.543e-01       6.009e+00       2.884e-02           0.030           0.001           1.000       1.445e-02          0.6548
 449       5.574e-01       6.009e+00       3.096e-02          -0.004           0.003           1.000       1.402e-02          0.7582
 450       4.648e-01       6.009e+00       2.946e-02          -0.057           0.005           0.998       1.281e-02          0.7824
 451       3.817e-01       6.009e+00       2.377e-02          -0.106           0.007           0.994       1.087e-02          0.7719
 452       3.131e-01       6.009e+00       1.589e-02          -0.144           0.009           0.989       8.290e-03          0.7835
 453       2.628e-01       6.009e+00       8.323e-03          -0.171           0.011           0.985       5.198e-03          0.8959
 454       2.339e-01       6.009e+00       3.461e-03          -0.117           0.010           0.993       1.753e-03          2.2883
Strip 36
 455       1.018e+00       6.136e+00      -2.081e-03           0.134          -0.003           0.991       1.234e-03          0.1265
 456       1.001e+00       6.136e+00       1.802e-04           0.128          -0.002           0.992       3.627e-03          0.2091
 457       9.617e-01       6.136e+00       5.046e-03           0.116          -0.002           0.993       5.801e-03          0.2861
 458       9.032e-01       6.136e+00       1.157e-02           0.099          -0.002           0.995       7.630e-03          0.3527
 459       8.286e-01       6.136e+00       1.854e-02           0.077          -0.002           0.997       9.008e-03          0.4081
 460       7.422e-01       6.136e+00       2.467e-02           0.053          -0.001           0.999       9.862e-03          0.4608
 461       6.490e-01       6.136e+00       2.897e-02           0.026           0.001           1.000       1.015e-02          0.5318
 462       5.544e-01       6.136e+00       3.069e-02          -0.007           0.003           1.000       9.848e-03          0.6229
 463       4.639e-01       6.136e+00       2.890e-02          -0.061           0.005           0.998       8.998e-03          0.6383
 464       3.828e-01       6.136e+00       2.305e-02          -0.110           0.007           0.994       7.638e-03          0.6178
 465       3.157e-01       6.136e+00       1.511e-02          -0.148           0.010           0.989       5.826e-03          0.6040
 466       2.667e-01       6.136e+00       7.543e-03          -0.175           0.012           0.985       3.653e-03          0.6362
 467       2.385e-01       6.136e+00       2.693e-03          -0.121           0.010           0.993       1.232e-03          1.6958
Strip 37
 468       1.008e+00       6.221e+00      -5.753e-04           0.132          -0.003           0.991       7.315e-04          0.1052
 469       9.914e-01       6.221e+00       1.607e-03           0.126          -0.003           0.992       2.150e-03          0.1659
 470       9.531e-01       6.221e+00       6.297e-03           0.114          -0.003           0.994       3.439e-03          0.2175
 471       8.956e-01       6.221e+00       1.257e-02           0.097          -0.002           0.995       4.524e-03          0.2607
 472       8.222e-01       6.221e+00       1.924e-02           0.075          -0.002           0.997       5.341e-03          0.2960
 473       7.372e-01       6.221e+00       2.506e-02           0.050          -0.001           0.999       5.848e-03          0.3303
 474       6.454e-01       6.221e+00       2.905e-02           0.024           0.001           1.000       6.017e-03          0.3823
 475       5.524e-01       6.221e+00       3.051e-02          -0.010           0.003           1.000       5.841e-03          0.4559
 476       4.633e-01       6.221e+00       2.852e-02          -0.064           0.005           0.998       5.337e-03          0.4648
 477       3.835e-01       6.221e+00       2.257e-02          -0.112           0.007           0.994       4.531e-03          0.4435
 478       3.175e-01       6.221e+00       1.459e-02          -0.150           0.010           0.989       3.457e-03          0.4193
 479       2.693e-01       6.221e+00       7.020e-03          -0.177           0.012           0.984       2.168e-03          0.3921
 480       2.415e-01       6.221e+00       2.178e-03          -0.123           0.010           0.992       7.307e-04          1.1620
Strip 38
 481       1.003e+00       6.264e+00       1.802e-04           0.130          -0.003           0.991       2.423e-04          0.0784
 482       9.867e-01       6.264e+00       2.323e-03           0.125          -0.003           0.992       7.124e-04          0.1055
 483       9.488e-01       6.264e+00       6.925e-03           0.112          -0.003           0.994       1.140e-03          0.1321
 484       8.918e-01       6.264e+00       1.308e-02           0.095          -0.003           0.995       1.499e-03          0.1557
 485       8.190e-01       6.264e+00       1.959e-02           0.074          -0.002           0.997       1.770e-03          0.1751
 486       7.346e-01       6.264e+00       2.525e-02           0.049          -0.001           0.999       1.938e-03          0.1943
 487       6.437e-01       6.264e+00       2.909e-02           0.023           0.001           1.000       1.994e-03          0.2251
 488       5.513e-01       6.264e+00       3.042e-02          -0.011           0.003           1.000       1.935e-03          0.2717
 489       4.630e-01       6.264e+00       2.833e-02          -0.065           0.005           0.998       1.769e-03          0.2765
 490       3.839e-01       6.264e+00       2.233e-02          -0.114           0.007           0.993       1.502e-03          0.2623
 491       3.184e-01       6.264e+00       1.433e-02          -0.152           0.010           0.988       1.146e-03          0.2441
 492       2.706e-01       6.264e+00       6.757e-03          -0.178           0.012           0.984       7.184e-04          0.1893
 493       2.430e-01       6.264e+00       1.919e-03          -0.124           0.010           0.992       2.422e-04          0.7425










