xflr5 v6.47

Validation Plane
T1-50.0 m/s-VLM2-Inviscid
QInf  =   50.000000 m/s
Alpha =   10.000000
Beta  =    0.000°
Phi   =    0.000°
Ctrl  =    0.000
CL    =    1.213253
Cy    =   -0.000000
Cd    =    0.047006     ICd   =    0.047006     PCd   =    0.000000
Cl   = 1.56774e-16
Cm   =   -0.382734
ICn   =    0.000000     PCn   =    0.000000 
XCP   =    0.388297     YCP   =   -0.000000     ZCP   =    0.025366  
XNP   =    0.000000
Bending = 32450.345834

Main Wing
  y-span        Chord      Ai         Cl        PCd          ICd        CmGeom    CmAirf@chord/4    XTrtop    XTrBot      XCP       BM
   -5.9898     1.1602    -4.658    0.197233    0.000000    0.016019   -0.057866   -0.008519     0.0000    0.0000    0.2902    0.0000
   -5.9488     1.1611    -4.557    0.338508    0.000000    0.026972   -0.099886   -0.015249     0.0000    0.0000    0.2921    0.2946
   -5.8673     1.1629    -4.358    0.482656    0.000000    0.036775   -0.143914   -0.023242     0.0000    0.0000    0.2952    3.9004
   -5.7457     1.1655    -4.074    0.616936    0.000000    0.043937   -0.185927   -0.031683     0.0000    0.0000    0.2983   19.9448
   -5.5848     1.1690    -3.742    0.737771    0.000000    0.048245   -0.224407   -0.039950     0.0000    0.0000    0.3011   66.2975
   -5.3857     1.1733    -3.396    0.844021    0.000000    0.050080   -0.258624   -0.047598     0.0000    0.0000    0.3033   171.1501
   -5.1499     1.1784    -3.064    0.936063    0.000000    0.050111   -0.288472   -0.054428     0.0000    0.0000    0.3050   373.4781
   -4.8789     1.1843    -2.767    1.015200    0.000000    0.049058   -0.314286   -0.060449     0.0000    0.0000    0.3064   722.5008
   -4.5746     1.1909    -2.512    1.083155    0.000000    0.047528   -0.336626   -0.065789     0.0000    0.0000    0.3075   1276.3394
   -4.2390     1.1982    -2.305    1.141703    0.000000    0.045964   -0.356100   -0.070613     0.0000    0.0000    0.3086   2100.0820
   -3.8745     1.2061    -2.144    1.192439    0.000000    0.044651   -0.373255   -0.075071     0.0000    0.0000    0.3097   3263.4274
   -3.4835     1.2145    -2.026    1.236674    0.000000    0.043757   -0.388533   -0.079275     0.0000    0.0000    0.3107   4838.0333
   -3.0687     1.2235    -1.948    1.275400    0.000000    0.043379   -0.402254   -0.083299     0.0000    0.0000    0.3119   6894.6615
   -2.6329     1.2330    -1.906    1.309288    0.000000    0.043571   -0.414628   -0.087184     0.0000    0.0000    0.3131   9500.1961
   -2.1792     1.2428    -1.899    1.338694    0.000000    0.044376   -0.425752   -0.090939     0.0000    0.0000    0.3144   12714.6013
   -1.7106     1.2529    -1.926    1.363649    0.000000    0.045846   -0.435616   -0.094547     0.0000    0.0000    0.3157   16587.8849
   -1.2302     1.2633    -1.989    1.383799    0.000000    0.048066   -0.444070   -0.097946     0.0000    0.0000    0.3171   21157.1335
   -0.7415     1.2739    -2.098    1.398200    0.000000    0.051223   -0.450723   -0.100981     0.0000    0.0000    0.3185   26443.6716
   -0.2477     1.2846    -2.279    1.404587    0.000000    0.055892   -0.454513   -0.103158     0.0000    0.0000    0.3196   32450.3458
    0.2477     1.2846    -2.279    1.404587    0.000000    0.055892   -0.454513   -0.103158     0.0000    0.0000    0.3196   32450.2506
    0.7415     1.2739    -2.098    1.398200    0.000000    0.051223   -0.450723   -0.100981     0.0000    0.0000    0.3185   26443.5800
    1.2302     1.2633    -1.989    1.383799    0.000000    0.048066   -0.444070   -0.097946     0.0000    0.0000    0.3171   21157.0484
    1.7106     1.2529    -1.926    1.363649    0.000000    0.045846   -0.435616   -0.094547     0.0000    0.0000    0.3157   16587.8083
    2.1792     1.2428    -1.899    1.338694    0.000000    0.044376   -0.425752   -0.090939     0.0000    0.0000    0.3144   12714.5343
    2.6329     1.2330    -1.906    1.309288    0.000000    0.043571   -0.414628   -0.087184     0.0000    0.0000    0.3131   9500.1394
    3.0687     1.2235    -1.948    1.275400    0.000000    0.043379   -0.402254   -0.083299     0.0000    0.0000    0.3119   6894.6149
    3.4835     1.2145    -2.026    1.236674    0.000000    0.043757   -0.388533   -0.079275     0.0000    0.0000    0.3107   4837.9964
    3.8745     1.2061    -2.144    1.192439    0.000000    0.044651   -0.373255   -0.075071     0.0000    0.0000    0.3097   3263.3993
    4.2390     1.1982    -2.305    1.141703    0.000000    0.045964   -0.356100   -0.070613     0.0000    0.0000    0.3086   2100.0614
    4.5746     1.1909    -2.512    1.083155    0.000000    0.047528   -0.336626   -0.065789     0.0000    0.0000    0.3075   1276.3251
    4.8789     1.1843    -2.767    1.015200    0.000000    0.049058   -0.314286   -0.060449     0.0000    0.0000    0.3064   722.4915
    5.1499     1.1784    -3.064    0.936063    0.000000    0.050111   -0.288472   -0.054428     0.0000    0.0000    0.3050   373.4725
    5.3857     1.1733    -3.396    0.844021    0.000000    0.050080   -0.258624   -0.047598     0.0000    0.0000    0.3033   171.1470
    5.5848     1.1690    -3.742    0.737771    0.000000    0.048245   -0.224407   -0.039950     0.0000    0.0000    0.3011   66.2960
    5.7457     1.1655    -4.074    0.616936    0.000000    0.043937   -0.185927   -0.031683     0.0000    0.0000    0.2983   19.9442
    5.8673     1.1629    -4.358    0.482656    0.000000    0.036775   -0.143914   -0.023242     0.0000    0.0000    0.2952    3.9003
    5.9488     1.1611    -4.557    0.338508    0.000000    0.026972   -0.099886   -0.015249     0.0000    0.0000    0.2921    0.2946
    5.9898     1.1602    -4.658    0.197233    0.000000    0.016019   -0.057866   -0.008519     0.0000    0.0000    0.2902    0.0000


Main Wing Cp Coefficients
 Panel     CtrlPt.x        CtrlPt.y        CtrlPt.z       Nx      Ny       Nz        Area       Cp
Main WingCp Coefficients
Strip 1
   0       1.156e+00      -5.990e+00       1.706e-04           0.054           0.004           0.999       3.461e-04         -0.0048
   1       1.131e+00      -5.990e+00       1.607e-03           0.060           0.004           0.998       1.018e-03          0.0107
   2       1.074e+00      -5.990e+00       5.227e-03           0.069           0.002           0.998       1.632e-03          0.0401
   3       9.881e-01      -5.990e+00       1.121e-02           0.072           0.001           0.997       2.151e-03          0.0736
   4       8.786e-01      -5.990e+00       1.895e-02           0.067           0.000           0.998       2.544e-03          0.1129
   5       7.517e-01      -5.990e+00       2.695e-02           0.051          -0.001           0.999       2.787e-03          0.1553
   6       6.149e-01      -5.990e+00       3.282e-02           0.018          -0.001           1.000       2.867e-03          0.1777
   7       4.760e-01      -5.990e+00       3.425e-02          -0.015          -0.002           1.000       2.784e-03          0.1905
   8       3.432e-01      -5.990e+00       3.147e-02          -0.041          -0.002           0.999       2.541e-03          0.2182
   9       2.241e-01      -5.990e+00       2.589e-02          -0.067          -0.002           0.998       2.151e-03          0.2679
  10       1.257e-01      -5.990e+00       1.865e-02          -0.098          -0.002           0.995       1.636e-03          0.3602
  11       5.369e-02      -5.990e+00       1.110e-02          -0.136          -0.001           0.991       1.026e-03          0.5886
  12       1.226e-02      -5.990e+00       5.063e-03          -0.216          -0.001           0.976       3.540e-04          1.1492
Strip 2
  13       1.157e+00      -5.949e+00      -5.585e-05           0.055           0.004           0.998       1.037e-03         -0.0015
  14       1.132e+00      -5.949e+00       1.401e-03           0.061           0.003           0.998       3.051e-03          0.0227
  15       1.075e+00      -5.949e+00       5.064e-03           0.069           0.002           0.998       4.890e-03          0.0703
  16       9.889e-01      -5.949e+00       1.110e-02           0.072           0.001           0.997       6.445e-03          0.1271
  17       8.793e-01      -5.949e+00       1.889e-02           0.068           0.000           0.998       7.621e-03          0.1938
  18       7.523e-01      -5.949e+00       2.694e-02           0.051          -0.001           0.999       8.349e-03          0.2655
  19       6.154e-01      -5.949e+00       3.284e-02           0.019          -0.001           1.000       8.589e-03          0.3043
  20       4.764e-01      -5.949e+00       3.432e-02          -0.015          -0.002           1.000       8.339e-03          0.3284
  21       3.434e-01      -5.949e+00       3.156e-02          -0.041          -0.002           0.999       7.610e-03          0.3777
  22       2.243e-01      -5.949e+00       2.599e-02          -0.067          -0.002           0.998       6.443e-03          0.4651
  23       1.258e-01      -5.949e+00       1.873e-02          -0.098          -0.002           0.995       4.902e-03          0.6279
  24       5.373e-02      -5.949e+00       1.116e-02          -0.136          -0.001           0.991       3.074e-03          0.9934
  25       1.228e-02      -5.949e+00       5.123e-03          -0.215          -0.001           0.977       1.060e-03          1.8746
Strip 3
  26       1.159e+00      -5.867e+00      -5.072e-04           0.057           0.004           0.998       1.723e-03          0.0091
  27       1.134e+00      -5.867e+00       9.923e-04           0.063           0.003           0.998       5.070e-03          0.0433
  28       1.076e+00      -5.867e+00       4.741e-03           0.070           0.002           0.998       8.126e-03          0.1065
  29       9.904e-01      -5.867e+00       1.088e-02           0.073           0.001           0.997       1.071e-02          0.1845
  30       8.806e-01      -5.867e+00       1.877e-02           0.068           0.000           0.998       1.266e-02          0.2764
  31       7.535e-01      -5.867e+00       2.690e-02           0.052          -0.001           0.999       1.387e-02          0.3742
  32       6.163e-01      -5.867e+00       3.288e-02           0.019          -0.001           1.000       1.427e-02          0.4329
  33       4.771e-01      -5.867e+00       3.444e-02          -0.014          -0.002           1.000       1.386e-02          0.4746
  34       3.440e-01      -5.867e+00       3.175e-02          -0.041          -0.002           0.999       1.264e-02          0.5485
  35       2.246e-01      -5.867e+00       2.618e-02          -0.068          -0.002           0.998       1.070e-02          0.6738
  36       1.260e-01      -5.867e+00       1.888e-02          -0.098          -0.002           0.995       8.145e-03          0.8935
  37       5.382e-02      -5.867e+00       1.129e-02          -0.136          -0.001           0.991       5.107e-03          1.3529
  38       1.231e-02      -5.867e+00       5.243e-03          -0.214          -0.001           0.977       1.761e-03          2.6252
Strip 4
  39       1.161e+00      -5.746e+00      -1.180e-03           0.059           0.004           0.998       2.401e-03          0.0236
  40       1.136e+00      -5.746e+00       3.822e-04           0.065           0.003           0.998       7.066e-03          0.0690
  41       1.079e+00      -5.746e+00       4.258e-03           0.072           0.002           0.997       1.133e-02          0.1462
  42       9.926e-01      -5.746e+00       1.055e-02           0.074           0.001           0.997       1.492e-02          0.2418
  43       8.826e-01      -5.746e+00       1.859e-02           0.069           0.000           0.998       1.765e-02          0.3541
  44       7.552e-01      -5.746e+00       2.685e-02           0.053          -0.001           0.999       1.933e-02          0.4730
  45       6.177e-01      -5.746e+00       3.295e-02           0.020          -0.001           1.000       1.989e-02          0.5522
  46       4.782e-01      -5.746e+00       3.464e-02          -0.013          -0.002           1.000       1.931e-02          0.6147
  47       3.447e-01      -5.746e+00       3.203e-02          -0.040          -0.002           0.999       1.762e-02          0.7114
  48       2.251e-01      -5.746e+00       2.646e-02          -0.068          -0.002           0.998       1.492e-02          0.8649
  49       1.263e-01      -5.746e+00       1.912e-02          -0.098          -0.002           0.995       1.135e-02          1.1238
  50       5.395e-02      -5.746e+00       1.148e-02          -0.136          -0.001           0.991       7.118e-03          1.6732
  51       1.235e-02      -5.746e+00       5.422e-03          -0.211          -0.001           0.978       2.452e-03          3.3483
Strip 5
  52       1.165e+00      -5.585e+00      -2.071e-03           0.062           0.004           0.998       3.068e-03          0.0396
  53       1.139e+00      -5.585e+00      -4.248e-04           0.068           0.003           0.998       9.030e-03          0.0966
  54       1.082e+00      -5.585e+00       3.619e-03           0.074           0.002           0.997       1.447e-02          0.1869
  55       9.955e-01      -5.585e+00       1.012e-02           0.076           0.001           0.997       1.907e-02          0.2970
  56       8.852e-01      -5.585e+00       1.835e-02           0.070           0.000           0.998       2.255e-02          0.4253
  57       7.574e-01      -5.585e+00       2.679e-02           0.054          -0.001           0.999       2.470e-02          0.5610
  58       6.195e-01      -5.585e+00       3.304e-02           0.021          -0.001           1.000       2.541e-02          0.6587
  59       4.796e-01      -5.585e+00       3.489e-02          -0.012          -0.002           1.000       2.467e-02          0.7413
  60       3.458e-01      -5.585e+00       3.240e-02          -0.040          -0.002           0.999       2.251e-02          0.8563
  61       2.258e-01      -5.585e+00       2.684e-02          -0.068          -0.002           0.998       1.906e-02          1.0304
  62       1.267e-01      -5.585e+00       1.943e-02          -0.099          -0.002           0.995       1.450e-02          1.3232
  63       5.413e-02      -5.585e+00       1.173e-02          -0.137          -0.001           0.991       9.095e-03          1.9611
  64       1.240e-02      -5.585e+00       5.659e-03          -0.207          -0.001           0.978       3.130e-03          4.0266
Strip 6
  65       1.169e+00      -5.386e+00      -3.173e-03           0.066           0.004           0.998       3.722e-03          0.0560
  66       1.144e+00      -5.386e+00      -1.423e-03           0.071           0.003           0.997       1.095e-02          0.1241
  67       1.086e+00      -5.386e+00       2.829e-03           0.077           0.002           0.997       1.755e-02          0.2261
  68       9.992e-01      -5.386e+00       9.578e-03           0.078           0.001           0.997       2.313e-02          0.3483
  69       8.885e-01      -5.386e+00       1.806e-02           0.072           0.000           0.997       2.735e-02          0.4889
  70       7.602e-01      -5.386e+00       2.670e-02           0.055          -0.001           0.999       2.996e-02          0.6376
  71       6.218e-01      -5.386e+00       3.315e-02           0.023          -0.001           1.000       3.082e-02          0.7510
  72       4.814e-01      -5.386e+00       3.520e-02          -0.011          -0.002           1.000       2.992e-02          0.8509
  73       3.471e-01      -5.386e+00       3.286e-02          -0.040          -0.002           0.999       2.730e-02          0.9807
  74       2.267e-01      -5.386e+00       2.730e-02          -0.069          -0.002           0.998       2.312e-02          1.1719
  75       1.272e-01      -5.386e+00       1.982e-02          -0.100          -0.002           0.995       1.759e-02          1.4961
  76       5.435e-02      -5.386e+00       1.204e-02          -0.137          -0.001           0.991       1.103e-02          2.2170
  77       1.247e-02      -5.386e+00       5.951e-03          -0.203          -0.001           0.979       3.792e-03          4.6491
Strip 7
  78       1.174e+00      -5.150e+00      -4.478e-03           0.071           0.004           0.997       4.358e-03          0.0719
  79       1.149e+00      -5.150e+00      -2.606e-03           0.076           0.003           0.997       1.282e-02          0.1505
  80       1.091e+00      -5.150e+00       1.893e-03           0.081           0.002           0.997       2.055e-02          0.2626
  81       1.004e+00      -5.150e+00       8.941e-03           0.081           0.001           0.997       2.708e-02          0.3946
  82       8.923e-01      -5.150e+00       1.771e-02           0.074           0.000           0.997       3.202e-02          0.5447
  83       7.635e-01      -5.150e+00       2.661e-02           0.056          -0.001           0.998       3.507e-02          0.7030
  84       6.245e-01      -5.150e+00       3.328e-02           0.024          -0.001           1.000       3.607e-02          0.8292
  85       4.835e-01      -5.150e+00       3.558e-02          -0.009          -0.002           1.000       3.502e-02          0.9442
  86       3.486e-01      -5.150e+00       3.341e-02          -0.039          -0.002           0.999       3.196e-02          1.0864
  87       2.277e-01      -5.150e+00       2.785e-02          -0.069          -0.002           0.998       2.706e-02          1.2924
  88       1.277e-01      -5.150e+00       2.027e-02          -0.101          -0.002           0.995       2.059e-02          1.6452
  89       5.461e-02      -5.150e+00       1.240e-02          -0.137          -0.001           0.991       1.291e-02          2.4410
  90       1.255e-02      -5.150e+00       6.298e-03          -0.198          -0.001           0.980       4.434e-03          5.2101
Strip 8
  91       1.180e+00      -4.879e+00      -5.978e-03           0.077           0.004           0.997       4.974e-03          0.0870
  92       1.154e+00      -4.879e+00      -3.965e-03           0.080           0.003           0.997       1.464e-02          0.1751
  93       1.096e+00      -4.879e+00       8.171e-04           0.084           0.002           0.996       2.345e-02          0.2959
  94       1.009e+00      -4.879e+00       8.209e-03           0.083           0.001           0.997       3.090e-02          0.4358
  95       8.968e-01      -4.879e+00       1.731e-02           0.076           0.000           0.997       3.653e-02          0.5928
  96       7.673e-01      -4.879e+00       2.649e-02           0.058          -0.001           0.998       4.001e-02          0.7581
  97       6.276e-01      -4.879e+00       3.343e-02           0.026          -0.001           1.000       4.115e-02          0.8949
  98       4.859e-01      -4.879e+00       3.600e-02          -0.007          -0.002           1.000       3.995e-02          1.0234
  99       3.503e-01      -4.879e+00       3.403e-02          -0.039          -0.002           0.999       3.646e-02          1.1762
 100       2.288e-01      -4.879e+00       2.848e-02          -0.070          -0.002           0.998       3.087e-02          1.3949
 101       1.284e-01      -4.879e+00       2.080e-02          -0.102          -0.002           0.995       2.349e-02          1.7728
 102       5.491e-02      -4.879e+00       1.282e-02          -0.138          -0.001           0.990       1.473e-02          2.6341
 103       1.264e-02      -4.879e+00       6.696e-03          -0.192          -0.001           0.981       5.052e-03          5.7087
Strip 9
 104       1.186e+00      -4.575e+00      -7.662e-03           0.083           0.004           0.997       5.565e-03          0.1012
 105       1.161e+00      -4.575e+00      -5.492e-03           0.086           0.003           0.996       1.638e-02          0.1979
 106       1.102e+00      -4.575e+00      -3.910e-04           0.089           0.002           0.996       2.624e-02          0.3261
 107       1.014e+00      -4.575e+00       7.386e-03           0.087           0.001           0.996       3.457e-02          0.4722
 108       9.018e-01      -4.575e+00       1.686e-02           0.078          -0.000           0.997       4.086e-02          0.6342
 109       7.716e-01      -4.575e+00       2.637e-02           0.059          -0.001           0.998       4.475e-02          0.8044
 110       6.311e-01      -4.575e+00       3.360e-02           0.028          -0.001           1.000       4.603e-02          0.9502
 111       4.886e-01      -4.575e+00       3.649e-02          -0.005          -0.002           1.000       4.467e-02          1.0910
 112       3.523e-01      -4.575e+00       3.474e-02          -0.038          -0.002           0.999       4.077e-02          1.2530
 113       2.301e-01      -4.575e+00       2.919e-02          -0.070          -0.002           0.998       3.452e-02          1.4823
 114       1.291e-01      -4.575e+00       2.139e-02          -0.103          -0.002           0.995       2.628e-02          1.8815
 115       5.524e-02      -4.575e+00       1.329e-02          -0.138          -0.001           0.990       1.647e-02          2.7988
 116       1.274e-02      -4.575e+00       7.144e-03          -0.185          -0.001           0.983       5.643e-03          6.1483
Strip 10
 117       1.194e+00      -4.239e+00      -9.520e-03           0.089           0.004           0.996       6.129e-03          0.1147
 118       1.168e+00      -4.239e+00      -7.175e-03           0.092           0.003           0.996       1.803e-02          0.2191
 119       1.109e+00      -4.239e+00      -1.723e-03           0.093           0.002           0.996       2.889e-02          0.3536
 120       1.020e+00      -4.239e+00       6.480e-03           0.090           0.001           0.996       3.806e-02          0.5046
 121       9.072e-01      -4.239e+00       1.637e-02           0.080          -0.000           0.997       4.499e-02          0.6700
 122       7.763e-01      -4.239e+00       2.623e-02           0.061          -0.001           0.998       4.926e-02          0.8436
 123       6.350e-01      -4.239e+00       3.379e-02           0.031          -0.001           1.000       5.067e-02          0.9971
 124       4.916e-01      -4.239e+00       3.701e-02          -0.003          -0.002           1.000       4.917e-02          1.1493
 125       3.545e-01      -4.239e+00       3.551e-02          -0.038          -0.002           0.999       4.487e-02          1.3192
 126       2.315e-01      -4.239e+00       2.997e-02          -0.071          -0.002           0.997       3.800e-02          1.5570
 127       1.299e-01      -4.239e+00       2.204e-02          -0.104          -0.002           0.995       2.893e-02          1.9736
 128       5.561e-02      -4.239e+00       1.381e-02          -0.139          -0.001           0.990       1.813e-02          2.9380
 129       1.285e-02      -4.239e+00       7.637e-03          -0.178          -0.001           0.984       6.203e-03          6.5340
Strip 11
 130       1.201e+00      -3.874e+00      -1.154e-02           0.096           0.003           0.995       6.661e-03          0.1275
 131       1.175e+00      -3.874e+00      -9.004e-03           0.098           0.003           0.995       1.960e-02          0.2390
 132       1.116e+00      -3.874e+00      -3.170e-03           0.098           0.002           0.995       3.140e-02          0.3789
 133       1.027e+00      -3.874e+00       5.495e-03           0.094           0.001           0.996       4.136e-02          0.5336
 134       9.132e-01      -3.874e+00       1.583e-02           0.083          -0.000           0.997       4.888e-02          0.7013
 135       7.814e-01      -3.874e+00       2.607e-02           0.063          -0.001           0.998       5.352e-02          0.8770
 136       6.392e-01      -3.874e+00       3.399e-02           0.033          -0.001           0.999       5.504e-02          1.0373
 137       4.949e-01      -3.874e+00       3.759e-02          -0.000          -0.002           1.000       5.341e-02          1.2002
 138       3.568e-01      -3.874e+00       3.636e-02          -0.037          -0.002           0.999       4.874e-02          1.3766
 139       2.331e-01      -3.874e+00       3.082e-02          -0.072          -0.002           0.997       4.128e-02          1.6210
 140       1.308e-01      -3.874e+00       2.275e-02          -0.105          -0.002           0.994       3.142e-02          2.0516
 141       5.602e-02      -3.874e+00       1.437e-02          -0.139          -0.001           0.990       1.970e-02          3.0550
 142       1.297e-02      -3.874e+00       8.173e-03          -0.170          -0.001           0.985       6.728e-03          6.8719
Strip 12
 143       1.210e+00      -3.483e+00      -1.370e-02           0.103           0.003           0.995       7.159e-03          0.1397
 144       1.184e+00      -3.483e+00      -1.097e-02           0.104           0.003           0.995       2.106e-02          0.2578
 145       1.124e+00      -3.483e+00      -4.722e-03           0.103           0.002           0.995       3.374e-02          0.4023
 146       1.034e+00      -3.483e+00       4.438e-03           0.097           0.001           0.995       4.443e-02          0.5601
 147       9.196e-01      -3.483e+00       1.526e-02           0.085          -0.000           0.996       5.250e-02          0.7291
 148       7.869e-01      -3.483e+00       2.591e-02           0.065          -0.001           0.998       5.748e-02          0.9058
 149       6.437e-01      -3.483e+00       3.421e-02           0.036          -0.001           0.999       5.912e-02          1.0721
 150       4.984e-01      -3.483e+00       3.821e-02           0.002          -0.002           1.000       5.736e-02          1.2450
 151       3.594e-01      -3.483e+00       3.726e-02          -0.036          -0.002           0.999       5.234e-02          1.4270
 152       2.348e-01      -3.483e+00       3.173e-02          -0.073          -0.002           0.997       4.434e-02          1.6760
 153       1.318e-01      -3.483e+00       2.350e-02          -0.107          -0.002           0.994       3.375e-02          2.1175
 154       5.645e-02      -3.483e+00       1.498e-02          -0.140          -0.001           0.990       2.116e-02          3.1526
 155       1.310e-02      -3.483e+00       8.748e-03          -0.161          -0.001           0.987       7.216e-03          7.1675
Strip 13
 156       1.219e+00      -3.069e+00      -1.600e-02           0.111           0.003           0.994       7.619e-03          0.1514
 157       1.192e+00      -3.069e+00      -1.305e-02           0.111           0.002           0.994       2.241e-02          0.2756
 158       1.132e+00      -3.069e+00      -6.369e-03           0.109           0.001           0.994       3.590e-02          0.4243
 159       1.042e+00      -3.069e+00       3.318e-03           0.101           0.001           0.995       4.726e-02          0.5843
 160       9.264e-01      -3.069e+00       1.465e-02           0.088          -0.000           0.996       5.584e-02          0.7538
 161       7.927e-01      -3.069e+00       2.574e-02           0.068          -0.001           0.998       6.113e-02          0.9309
 162       6.484e-01      -3.069e+00       3.444e-02           0.038          -0.001           0.999       6.286e-02          1.1024
 163       5.020e-01      -3.069e+00       3.886e-02           0.005          -0.002           1.000       6.099e-02          1.2848
 164       3.620e-01      -3.069e+00       3.822e-02          -0.036          -0.002           0.999       5.566e-02          1.4713
 165       2.365e-01      -3.069e+00       3.270e-02          -0.074          -0.002           0.997       4.715e-02          1.7234
 166       1.328e-01      -3.069e+00       2.431e-02          -0.108          -0.002           0.994       3.589e-02          2.1728
 167       5.690e-02      -3.069e+00       1.562e-02          -0.141          -0.001           0.990       2.250e-02          3.2333
 168       1.324e-02      -3.069e+00       9.358e-03          -0.153          -0.001           0.988       7.661e-03          7.4254
Strip 14
 169       1.228e+00      -2.633e+00      -1.841e-02           0.119           0.003           0.993       8.036e-03          0.1627
 170       1.202e+00      -2.633e+00      -1.523e-02           0.118           0.002           0.993       2.364e-02          0.2927
 171       1.141e+00      -2.633e+00      -8.099e-03           0.114           0.001           0.993       3.785e-02          0.4449
 172       1.050e+00      -2.633e+00       2.141e-03           0.106           0.000           0.994       4.983e-02          0.6067
 173       9.335e-01      -2.633e+00       1.401e-02           0.091          -0.000           0.996       5.886e-02          0.7761
 174       7.988e-01      -2.633e+00       2.556e-02           0.070          -0.001           0.998       6.443e-02          0.9527
 175       6.534e-01      -2.633e+00       3.468e-02           0.041          -0.001           0.999       6.625e-02          1.1289
 176       5.059e-01      -2.633e+00       3.955e-02           0.008          -0.002           1.000       6.427e-02          1.3202
 177       3.648e-01      -2.633e+00       3.923e-02          -0.035          -0.002           0.999       5.865e-02          1.5104
 178       2.384e-01      -2.633e+00       3.371e-02          -0.075          -0.002           0.997       4.969e-02          1.7640
 179       1.339e-01      -2.633e+00       2.515e-02          -0.110          -0.002           0.994       3.783e-02          2.2188
 180       5.738e-02      -2.633e+00       1.629e-02          -0.141          -0.001           0.990       2.371e-02          3.2987
 181       1.339e-02      -2.633e+00       9.999e-03          -0.143          -0.002           0.990       8.062e-03          7.6488
Strip 15
 182       1.238e+00      -2.179e+00      -2.092e-02           0.127           0.003           0.992       8.407e-03          0.1735
 183       1.211e+00      -2.179e+00      -1.751e-02           0.125           0.002           0.992       2.473e-02          0.3088
 184       1.150e+00      -2.179e+00      -9.900e-03           0.120           0.001           0.993       3.959e-02          0.4642
 185       1.058e+00      -2.179e+00       9.146e-04           0.110           0.000           0.994       5.210e-02          0.6273
 186       9.409e-01      -2.179e+00       1.334e-02           0.094          -0.000           0.996       6.153e-02          0.7960
 187       8.051e-01      -2.179e+00       2.537e-02           0.072          -0.001           0.997       6.735e-02          0.9716
 188       6.586e-01      -2.179e+00       3.494e-02           0.044          -0.001           0.999       6.925e-02          1.1520
 189       5.100e-01      -2.179e+00       4.027e-02           0.010          -0.002           1.000       6.718e-02          1.3517
 190       3.678e-01      -2.179e+00       4.028e-02          -0.034          -0.002           0.999       6.129e-02          1.5446
 191       2.403e-01      -2.179e+00       3.477e-02          -0.075          -0.002           0.997       5.193e-02          1.7983
 192       1.350e-01      -2.179e+00       2.603e-02          -0.111          -0.002           0.994       3.955e-02          2.2561
 193       5.788e-02      -2.179e+00       1.700e-02          -0.142          -0.001           0.990       2.478e-02          3.3501
 194       1.354e-02      -2.179e+00       1.067e-02          -0.134          -0.002           0.991       8.415e-03          7.8394
Strip 16
 195       1.248e+00      -1.711e+00      -2.351e-02           0.135           0.002           0.991       8.729e-03          0.1838
 196       1.221e+00      -1.711e+00      -1.986e-02           0.133           0.002           0.991       2.567e-02          0.3241
 197       1.159e+00      -1.711e+00      -1.176e-02           0.126           0.001           0.992       4.109e-02          0.4821
 198       1.067e+00      -1.711e+00      -3.515e-04           0.114           0.000           0.993       5.406e-02          0.6460
 199       9.486e-01      -1.711e+00       1.265e-02           0.097          -0.000           0.995       6.384e-02          0.8136
 200       8.117e-01      -1.711e+00       2.518e-02           0.075          -0.001           0.997       6.986e-02          0.9877
 201       6.640e-01      -1.711e+00       3.520e-02           0.047          -0.001           0.999       7.183e-02          1.1715
 202       5.142e-01      -1.711e+00       4.101e-02           0.013          -0.002           1.000       6.967e-02          1.3791
 203       3.708e-01      -1.711e+00       4.136e-02          -0.033          -0.002           0.999       6.357e-02          1.5739
 204       2.423e-01      -1.711e+00       3.586e-02          -0.076          -0.002           0.997       5.387e-02          1.8265
 205       1.361e-01      -1.711e+00       2.694e-02          -0.113          -0.002           0.994       4.102e-02          2.2849
 206       5.840e-02      -1.711e+00       1.772e-02          -0.143          -0.001           0.990       2.571e-02          3.3877
 207       1.370e-02      -1.711e+00       1.136e-02          -0.124          -0.002           0.992       8.717e-03          7.9971
Strip 17
 208       1.258e+00      -1.230e+00      -2.617e-02           0.144           0.002           0.990       8.998e-03          0.1934
 209       1.231e+00      -1.230e+00      -2.227e-02           0.140           0.002           0.990       2.646e-02          0.3382
 210       1.169e+00      -1.230e+00      -1.367e-02           0.132           0.001           0.991       4.233e-02          0.4985
 211       1.076e+00      -1.230e+00      -1.649e-03           0.119           0.000           0.993       5.569e-02          0.6626
 212       9.565e-01      -1.230e+00       1.194e-02           0.100          -0.000           0.995       6.574e-02          0.8286
 213       8.184e-01      -1.230e+00       2.498e-02           0.077          -0.001           0.997       7.194e-02          1.0005
 214       6.695e-01      -1.230e+00       3.546e-02           0.050          -0.001           0.999       7.397e-02          1.1874
 215       5.184e-01      -1.230e+00       4.176e-02           0.016          -0.002           1.000       7.174e-02          1.4021
 216       3.739e-01      -1.230e+00       4.247e-02          -0.032          -0.002           0.999       6.545e-02          1.5981
 217       2.443e-01      -1.230e+00       3.698e-02          -0.077          -0.002           0.997       5.546e-02          1.8482
 218       1.373e-01      -1.230e+00       2.787e-02          -0.114          -0.002           0.993       4.224e-02          2.3048
 219       5.893e-02      -1.230e+00       1.846e-02          -0.144          -0.001           0.990       2.647e-02          3.4109
 220       1.386e-02      -1.230e+00       1.206e-02          -0.115          -0.002           0.993       8.964e-03          8.1203
Strip 18
 221       1.269e+00      -7.415e-01      -2.888e-02           0.152           0.002           0.988       9.210e-03          0.2021
 222       1.241e+00      -7.415e-01      -2.472e-02           0.147           0.002           0.989       2.708e-02          0.3508
 223       1.179e+00      -7.415e-01      -1.561e-02           0.138           0.001           0.990       4.331e-02          0.5126
 224       1.085e+00      -7.415e-01      -2.970e-03           0.123           0.000           0.992       5.696e-02          0.6764
 225       9.645e-01      -7.415e-01       1.122e-02           0.103          -0.000           0.995       6.723e-02          0.8401
 226       8.253e-01      -7.415e-01       2.477e-02           0.080          -0.001           0.997       7.356e-02          1.0092
 227       6.752e-01      -7.415e-01       3.574e-02           0.053          -0.001           0.999       7.563e-02          1.1985
 228       5.228e-01      -7.415e-01       4.254e-02           0.019          -0.002           1.000       7.334e-02          1.4198
 229       3.771e-01      -7.415e-01       4.360e-02          -0.032          -0.002           0.999       6.691e-02          1.6160
 230       2.464e-01      -7.415e-01       3.812e-02          -0.078          -0.002           0.997       5.670e-02          1.8623
 231       1.385e-01      -7.415e-01       2.882e-02          -0.116          -0.002           0.993       4.319e-02          2.3147
 232       5.947e-02      -7.415e-01       1.922e-02          -0.144          -0.001           0.990       2.706e-02          3.4184
 233       1.402e-02      -7.415e-01       1.278e-02          -0.105          -0.002           0.994       9.154e-03          8.2047
Strip 19
 234       1.279e+00      -2.477e-01      -3.161e-02           0.160           0.002           0.987       9.363e-03          0.2090
 235       1.252e+00      -2.477e-01      -2.720e-02           0.155           0.001           0.988       2.752e-02          0.3603
 236       1.189e+00      -2.477e-01      -1.757e-02           0.143           0.001           0.990       4.401e-02          0.5225
 237       1.094e+00      -2.477e-01      -4.304e-03           0.127           0.000           0.992       5.786e-02          0.6850
 238       9.725e-01      -2.477e-01       1.050e-02           0.106          -0.000           0.994       6.828e-02          0.8456
 239       8.322e-01      -2.477e-01       2.457e-02           0.082          -0.001           0.997       7.470e-02          1.0116
 240       6.808e-01      -2.477e-01       3.601e-02           0.056          -0.001           0.998       7.680e-02          1.2027
 241       5.272e-01      -2.477e-01       4.332e-02           0.022          -0.002           1.000       7.447e-02          1.4299
 242       3.802e-01      -2.477e-01       4.474e-02          -0.031          -0.002           1.000       6.793e-02          1.6257
 243       2.485e-01      -2.477e-01       3.927e-02          -0.079          -0.002           0.997       5.757e-02          1.8670
 244       1.397e-01      -2.477e-01       2.978e-02          -0.117          -0.002           0.993       4.386e-02          2.3127
 245       6.001e-02      -2.477e-01       1.998e-02          -0.145          -0.001           0.989       2.748e-02          3.4075
 246       1.419e-02      -2.477e-01       1.351e-02          -0.095          -0.002           0.995       9.285e-03          8.2445
Strip 20
 247       1.279e+00       2.477e-01      -3.161e-02           0.160          -0.002           0.987       9.363e-03          0.2090
 248       1.252e+00       2.477e-01      -2.720e-02           0.155          -0.001           0.988       2.752e-02          0.3603
 249       1.189e+00       2.477e-01      -1.757e-02           0.143          -0.001           0.990       4.401e-02          0.5225
 250       1.094e+00       2.477e-01      -4.304e-03           0.127          -0.000           0.992       5.786e-02          0.6850
 251       9.725e-01       2.477e-01       1.050e-02           0.106           0.000           0.994       6.828e-02          0.8456
 252       8.322e-01       2.477e-01       2.457e-02           0.082           0.001           0.997       7.470e-02          1.0116
 253       6.808e-01       2.477e-01       3.601e-02           0.056           0.001           0.998       7.680e-02          1.2027
 254       5.272e-01       2.477e-01       4.332e-02           0.022           0.002           1.000       7.447e-02          1.4299
 255       3.802e-01       2.477e-01       4.474e-02          -0.031           0.002           1.000       6.793e-02          1.6257
 256       2.485e-01       2.477e-01       3.927e-02          -0.079           0.002           0.997       5.757e-02          1.8670
 257       1.397e-01       2.477e-01       2.978e-02          -0.117           0.002           0.993       4.386e-02          2.3127
 258       6.001e-02       2.477e-01       1.998e-02          -0.145           0.001           0.989       2.748e-02          3.4075
 259       1.419e-02       2.477e-01       1.351e-02          -0.095           0.002           0.995       9.285e-03          8.2445
Strip 21
 260       1.269e+00       7.415e-01      -2.888e-02           0.152          -0.002           0.988       9.210e-03          0.2021
 261       1.241e+00       7.415e-01      -2.472e-02           0.147          -0.002           0.989       2.708e-02          0.3508
 262       1.179e+00       7.415e-01      -1.561e-02           0.138          -0.001           0.990       4.331e-02          0.5126
 263       1.085e+00       7.415e-01      -2.970e-03           0.123          -0.000           0.992       5.696e-02          0.6764
 264       9.645e-01       7.415e-01       1.122e-02           0.103           0.000           0.995       6.723e-02          0.8401
 265       8.253e-01       7.415e-01       2.477e-02           0.080           0.001           0.997       7.356e-02          1.0092
 266       6.752e-01       7.415e-01       3.574e-02           0.053           0.001           0.999       7.563e-02          1.1985
 267       5.228e-01       7.415e-01       4.254e-02           0.019           0.002           1.000       7.334e-02          1.4198
 268       3.771e-01       7.415e-01       4.360e-02          -0.032           0.002           0.999       6.691e-02          1.6160
 269       2.464e-01       7.415e-01       3.812e-02          -0.078           0.002           0.997       5.670e-02          1.8623
 270       1.385e-01       7.415e-01       2.882e-02          -0.116           0.002           0.993       4.319e-02          2.3147
 271       5.947e-02       7.415e-01       1.922e-02          -0.144           0.001           0.990       2.706e-02          3.4184
 272       1.402e-02       7.415e-01       1.278e-02          -0.105           0.002           0.994       9.154e-03          8.2047
Strip 22
 273       1.258e+00       1.230e+00      -2.617e-02           0.144          -0.002           0.990       8.998e-03          0.1934
 274       1.231e+00       1.230e+00      -2.227e-02           0.140          -0.002           0.990       2.646e-02          0.3382
 275       1.169e+00       1.230e+00      -1.367e-02           0.132          -0.001           0.991       4.233e-02          0.4985
 276       1.076e+00       1.230e+00      -1.649e-03           0.119          -0.000           0.993       5.569e-02          0.6626
 277       9.565e-01       1.230e+00       1.194e-02           0.100           0.000           0.995       6.574e-02          0.8286
 278       8.184e-01       1.230e+00       2.498e-02           0.077           0.001           0.997       7.194e-02          1.0005
 279       6.695e-01       1.230e+00       3.546e-02           0.050           0.001           0.999       7.397e-02          1.1874
 280       5.184e-01       1.230e+00       4.176e-02           0.016           0.002           1.000       7.174e-02          1.4021
 281       3.739e-01       1.230e+00       4.247e-02          -0.032           0.002           0.999       6.545e-02          1.5981
 282       2.443e-01       1.230e+00       3.698e-02          -0.077           0.002           0.997       5.546e-02          1.8482
 283       1.373e-01       1.230e+00       2.787e-02          -0.114           0.002           0.993       4.224e-02          2.3048
 284       5.893e-02       1.230e+00       1.846e-02          -0.144           0.001           0.990       2.647e-02          3.4109
 285       1.386e-02       1.230e+00       1.206e-02          -0.115           0.002           0.993       8.964e-03          8.1203
Strip 23
 286       1.248e+00       1.711e+00      -2.351e-02           0.135          -0.002           0.991       8.729e-03          0.1838
 287       1.221e+00       1.711e+00      -1.986e-02           0.133          -0.002           0.991       2.567e-02          0.3241
 288       1.159e+00       1.711e+00      -1.176e-02           0.126          -0.001           0.992       4.109e-02          0.4821
 289       1.067e+00       1.711e+00      -3.515e-04           0.114          -0.000           0.993       5.406e-02          0.6460
 290       9.486e-01       1.711e+00       1.265e-02           0.097           0.000           0.995       6.384e-02          0.8136
 291       8.117e-01       1.711e+00       2.518e-02           0.075           0.001           0.997       6.986e-02          0.9877
 292       6.640e-01       1.711e+00       3.520e-02           0.047           0.001           0.999       7.183e-02          1.1715
 293       5.142e-01       1.711e+00       4.101e-02           0.013           0.002           1.000       6.967e-02          1.3791
 294       3.708e-01       1.711e+00       4.136e-02          -0.033           0.002           0.999       6.357e-02          1.5739
 295       2.423e-01       1.711e+00       3.586e-02          -0.076           0.002           0.997       5.387e-02          1.8265
 296       1.361e-01       1.711e+00       2.694e-02          -0.113           0.002           0.994       4.102e-02          2.2849
 297       5.840e-02       1.711e+00       1.772e-02          -0.143           0.001           0.990       2.571e-02          3.3877
 298       1.370e-02       1.711e+00       1.136e-02          -0.124           0.002           0.992       8.717e-03          7.9971
Strip 24
 299       1.238e+00       2.179e+00      -2.092e-02           0.127          -0.003           0.992       8.407e-03          0.1735
 300       1.211e+00       2.179e+00      -1.751e-02           0.125          -0.002           0.992       2.473e-02          0.3088
 301       1.150e+00       2.179e+00      -9.900e-03           0.120          -0.001           0.993       3.959e-02          0.4642
 302       1.058e+00       2.179e+00       9.146e-04           0.110          -0.000           0.994       5.210e-02          0.6273
 303       9.409e-01       2.179e+00       1.334e-02           0.094           0.000           0.996       6.153e-02          0.7960
 304       8.051e-01       2.179e+00       2.537e-02           0.072           0.001           0.997       6.735e-02          0.9716
 305       6.586e-01       2.179e+00       3.494e-02           0.044           0.001           0.999       6.925e-02          1.1520
 306       5.100e-01       2.179e+00       4.027e-02           0.010           0.002           1.000       6.718e-02          1.3517
 307       3.678e-01       2.179e+00       4.028e-02          -0.034           0.002           0.999       6.129e-02          1.5446
 308       2.403e-01       2.179e+00       3.477e-02          -0.075           0.002           0.997       5.193e-02          1.7983
 309       1.350e-01       2.179e+00       2.603e-02          -0.111           0.002           0.994       3.955e-02          2.2561
 310       5.788e-02       2.179e+00       1.700e-02          -0.142           0.001           0.990       2.478e-02          3.3501
 311       1.354e-02       2.179e+00       1.067e-02          -0.134           0.002           0.991       8.415e-03          7.8394
Strip 25
 312       1.228e+00       2.633e+00      -1.841e-02           0.119          -0.003           0.993       8.036e-03          0.1627
 313       1.202e+00       2.633e+00      -1.523e-02           0.118          -0.002           0.993       2.364e-02          0.2927
 314       1.141e+00       2.633e+00      -8.099e-03           0.114          -0.001           0.993       3.785e-02          0.4449
 315       1.050e+00       2.633e+00       2.141e-03           0.106          -0.000           0.994       4.983e-02          0.6067
 316       9.335e-01       2.633e+00       1.401e-02           0.091           0.000           0.996       5.886e-02          0.7761
 317       7.988e-01       2.633e+00       2.556e-02           0.070           0.001           0.998       6.443e-02          0.9527
 318       6.534e-01       2.633e+00       3.468e-02           0.041           0.001           0.999       6.625e-02          1.1289
 319       5.059e-01       2.633e+00       3.955e-02           0.008           0.002           1.000       6.427e-02          1.3202
 320       3.648e-01       2.633e+00       3.923e-02          -0.035           0.002           0.999       5.865e-02          1.5104
 321       2.384e-01       2.633e+00       3.371e-02          -0.075           0.002           0.997       4.969e-02          1.7640
 322       1.339e-01       2.633e+00       2.515e-02          -0.110           0.002           0.994       3.783e-02          2.2188
 323       5.738e-02       2.633e+00       1.629e-02          -0.141           0.001           0.990       2.371e-02          3.2987
 324       1.339e-02       2.633e+00       9.999e-03          -0.143           0.002           0.990       8.062e-03          7.6488
Strip 26
 325       1.219e+00       3.069e+00      -1.600e-02           0.111          -0.003           0.994       7.619e-03          0.1514
 326       1.192e+00       3.069e+00      -1.305e-02           0.111          -0.002           0.994       2.241e-02          0.2756
 327       1.132e+00       3.069e+00      -6.369e-03           0.109          -0.001           0.994       3.590e-02          0.4243
 328       1.042e+00       3.069e+00       3.318e-03           0.101          -0.001           0.995       4.726e-02          0.5843
 329       9.264e-01       3.069e+00       1.465e-02           0.088           0.000           0.996       5.584e-02          0.7538
 330       7.927e-01       3.069e+00       2.574e-02           0.068           0.001           0.998       6.113e-02          0.9309
 331       6.484e-01       3.069e+00       3.444e-02           0.038           0.001           0.999       6.286e-02          1.1024
 332       5.020e-01       3.069e+00       3.886e-02           0.005           0.002           1.000       6.099e-02          1.2848
 333       3.620e-01       3.069e+00       3.822e-02          -0.036           0.002           0.999       5.566e-02          1.4713
 334       2.365e-01       3.069e+00       3.270e-02          -0.074           0.002           0.997       4.715e-02          1.7234
 335       1.328e-01       3.069e+00       2.431e-02          -0.108           0.002           0.994       3.589e-02          2.1728
 336       5.690e-02       3.069e+00       1.562e-02          -0.141           0.001           0.990       2.250e-02          3.2333
 337       1.324e-02       3.069e+00       9.358e-03          -0.153           0.001           0.988       7.661e-03          7.4254
Strip 27
 338       1.210e+00       3.483e+00      -1.370e-02           0.103          -0.003           0.995       7.159e-03          0.1397
 339       1.184e+00       3.483e+00      -1.097e-02           0.104          -0.003           0.995       2.106e-02          0.2578
 340       1.124e+00       3.483e+00      -4.722e-03           0.103          -0.002           0.995       3.374e-02          0.4023
 341       1.034e+00       3.483e+00       4.438e-03           0.097          -0.001           0.995       4.443e-02          0.5601
 342       9.196e-01       3.483e+00       1.526e-02           0.085           0.000           0.996       5.250e-02          0.7291
 343       7.869e-01       3.483e+00       2.591e-02           0.065           0.001           0.998       5.748e-02          0.9058
 344       6.437e-01       3.483e+00       3.421e-02           0.036           0.001           0.999       5.912e-02          1.0721
 345       4.984e-01       3.483e+00       3.821e-02           0.002           0.002           1.000       5.736e-02          1.2450
 346       3.594e-01       3.483e+00       3.726e-02          -0.036           0.002           0.999       5.234e-02          1.4270
 347       2.348e-01       3.483e+00       3.173e-02          -0.073           0.002           0.997       4.434e-02          1.6760
 348       1.318e-01       3.483e+00       2.350e-02          -0.107           0.002           0.994       3.375e-02          2.1175
 349       5.645e-02       3.483e+00       1.498e-02          -0.140           0.001           0.990       2.116e-02          3.1526
 350       1.310e-02       3.483e+00       8.748e-03          -0.161           0.001           0.987       7.216e-03          7.1675
Strip 28
 351       1.201e+00       3.874e+00      -1.154e-02           0.096          -0.003           0.995       6.661e-03          0.1275
 352       1.175e+00       3.874e+00      -9.004e-03           0.098          -0.003           0.995       1.960e-02          0.2390
 353       1.116e+00       3.874e+00      -3.170e-03           0.098          -0.002           0.995       3.140e-02          0.3789
 354       1.027e+00       3.874e+00       5.495e-03           0.094          -0.001           0.996       4.136e-02          0.5336
 355       9.132e-01       3.874e+00       1.583e-02           0.083           0.000           0.997       4.888e-02          0.7013
 356       7.814e-01       3.874e+00       2.607e-02           0.063           0.001           0.998       5.352e-02          0.8770
 357       6.392e-01       3.874e+00       3.399e-02           0.033           0.001           0.999       5.504e-02          1.0373
 358       4.949e-01       3.874e+00       3.759e-02          -0.000           0.002           1.000       5.341e-02          1.2002
 359       3.568e-01       3.874e+00       3.636e-02          -0.037           0.002           0.999       4.874e-02          1.3766
 360       2.331e-01       3.874e+00       3.082e-02          -0.072           0.002           0.997       4.128e-02          1.6210
 361       1.308e-01       3.874e+00       2.275e-02          -0.105           0.002           0.994       3.142e-02          2.0516
 362       5.602e-02       3.874e+00       1.437e-02          -0.139           0.001           0.990       1.970e-02          3.0550
 363       1.297e-02       3.874e+00       8.173e-03          -0.170           0.001           0.985       6.728e-03          6.8719
Strip 29
 364       1.194e+00       4.239e+00      -9.520e-03           0.089          -0.004           0.996       6.129e-03          0.1147
 365       1.168e+00       4.239e+00      -7.175e-03           0.092          -0.003           0.996       1.803e-02          0.2191
 366       1.109e+00       4.239e+00      -1.723e-03           0.093          -0.002           0.996       2.889e-02          0.3536
 367       1.020e+00       4.239e+00       6.480e-03           0.090          -0.001           0.996       3.806e-02          0.5046
 368       9.072e-01       4.239e+00       1.637e-02           0.080           0.000           0.997       4.499e-02          0.6700
 369       7.763e-01       4.239e+00       2.623e-02           0.061           0.001           0.998       4.926e-02          0.8436
 370       6.350e-01       4.239e+00       3.379e-02           0.031           0.001           1.000       5.067e-02          0.9971
 371       4.916e-01       4.239e+00       3.701e-02          -0.003           0.002           1.000       4.917e-02          1.1493
 372       3.545e-01       4.239e+00       3.551e-02          -0.038           0.002           0.999       4.487e-02          1.3192
 373       2.315e-01       4.239e+00       2.997e-02          -0.071           0.002           0.997       3.800e-02          1.5570
 374       1.299e-01       4.239e+00       2.204e-02          -0.104           0.002           0.995       2.893e-02          1.9736
 375       5.561e-02       4.239e+00       1.381e-02          -0.139           0.001           0.990       1.813e-02          2.9380
 376       1.285e-02       4.239e+00       7.637e-03          -0.178           0.001           0.984       6.203e-03          6.5340
Strip 30
 377       1.186e+00       4.575e+00      -7.662e-03           0.083          -0.004           0.997       5.565e-03          0.1012
 378       1.161e+00       4.575e+00      -5.492e-03           0.086          -0.003           0.996       1.638e-02          0.1979
 379       1.102e+00       4.575e+00      -3.910e-04           0.089          -0.002           0.996       2.624e-02          0.3261
 380       1.014e+00       4.575e+00       7.386e-03           0.087          -0.001           0.996       3.457e-02          0.4722
 381       9.018e-01       4.575e+00       1.686e-02           0.078           0.000           0.997       4.086e-02          0.6342
 382       7.716e-01       4.575e+00       2.637e-02           0.059           0.001           0.998       4.475e-02          0.8044
 383       6.311e-01       4.575e+00       3.360e-02           0.028           0.001           1.000       4.603e-02          0.9502
 384       4.886e-01       4.575e+00       3.649e-02          -0.005           0.002           1.000       4.467e-02          1.0910
 385       3.523e-01       4.575e+00       3.474e-02          -0.038           0.002           0.999       4.077e-02          1.2530
 386       2.301e-01       4.575e+00       2.919e-02          -0.070           0.002           0.998       3.452e-02          1.4823
 387       1.291e-01       4.575e+00       2.139e-02          -0.103           0.002           0.995       2.628e-02          1.8815
 388       5.524e-02       4.575e+00       1.329e-02          -0.138           0.001           0.990       1.647e-02          2.7988
 389       1.274e-02       4.575e+00       7.144e-03          -0.185           0.001           0.983       5.643e-03          6.1483
Strip 31
 390       1.180e+00       4.879e+00      -5.978e-03           0.077          -0.004           0.997       4.974e-03          0.0870
 391       1.154e+00       4.879e+00      -3.965e-03           0.080          -0.003           0.997       1.464e-02          0.1751
 392       1.096e+00       4.879e+00       8.171e-04           0.084          -0.002           0.996       2.345e-02          0.2959
 393       1.009e+00       4.879e+00       8.209e-03           0.083          -0.001           0.997       3.090e-02          0.4358
 394       8.968e-01       4.879e+00       1.731e-02           0.076          -0.000           0.997       3.653e-02          0.5928
 395       7.673e-01       4.879e+00       2.649e-02           0.058           0.001           0.998       4.001e-02          0.7581
 396       6.276e-01       4.879e+00       3.343e-02           0.026           0.001           1.000       4.115e-02          0.8949
 397       4.859e-01       4.879e+00       3.600e-02          -0.007           0.002           1.000       3.995e-02          1.0234
 398       3.503e-01       4.879e+00       3.403e-02          -0.039           0.002           0.999       3.646e-02          1.1762
 399       2.288e-01       4.879e+00       2.848e-02          -0.070           0.002           0.998       3.087e-02          1.3949
 400       1.284e-01       4.879e+00       2.080e-02          -0.102           0.002           0.995       2.349e-02          1.7728
 401       5.491e-02       4.879e+00       1.282e-02          -0.138           0.001           0.990       1.473e-02          2.6341
 402       1.264e-02       4.879e+00       6.696e-03          -0.192           0.001           0.981       5.052e-03          5.7087
Strip 32
 403       1.174e+00       5.150e+00      -4.478e-03           0.071          -0.004           0.997       4.358e-03          0.0719
 404       1.149e+00       5.150e+00      -2.606e-03           0.076          -0.003           0.997       1.282e-02          0.1505
 405       1.091e+00       5.150e+00       1.893e-03           0.081          -0.002           0.997       2.055e-02          0.2626
 406       1.004e+00       5.150e+00       8.941e-03           0.081          -0.001           0.997       2.708e-02          0.3946
 407       8.923e-01       5.150e+00       1.771e-02           0.074          -0.000           0.997       3.202e-02          0.5447
 408       7.635e-01       5.150e+00       2.661e-02           0.056           0.001           0.998       3.507e-02          0.7030
 409       6.245e-01       5.150e+00       3.328e-02           0.024           0.001           1.000       3.607e-02          0.8292
 410       4.835e-01       5.150e+00       3.558e-02          -0.009           0.002           1.000       3.502e-02          0.9442
 411       3.486e-01       5.150e+00       3.341e-02          -0.039           0.002           0.999       3.196e-02          1.0864
 412       2.277e-01       5.150e+00       2.785e-02          -0.069           0.002           0.998       2.706e-02          1.2924
 413       1.277e-01       5.150e+00       2.027e-02          -0.101           0.002           0.995       2.059e-02          1.6452
 414       5.461e-02       5.150e+00       1.240e-02          -0.137           0.001           0.991       1.291e-02          2.4410
 415       1.255e-02       5.150e+00       6.298e-03          -0.198           0.001           0.980       4.434e-03          5.2101
Strip 33
 416       1.169e+00       5.386e+00      -3.173e-03           0.066          -0.004           0.998       3.722e-03          0.0560
 417       1.144e+00       5.386e+00      -1.423e-03           0.071          -0.003           0.997       1.095e-02          0.1241
 418       1.086e+00       5.386e+00       2.829e-03           0.077          -0.002           0.997       1.755e-02          0.2261
 419       9.992e-01       5.386e+00       9.578e-03           0.078          -0.001           0.997       2.313e-02          0.3483
 420       8.885e-01       5.386e+00       1.806e-02           0.072          -0.000           0.997       2.735e-02          0.4889
 421       7.602e-01       5.386e+00       2.670e-02           0.055           0.001           0.999       2.996e-02          0.6376
 422       6.218e-01       5.386e+00       3.315e-02           0.023           0.001           1.000       3.082e-02          0.7510
 423       4.814e-01       5.386e+00       3.520e-02          -0.011           0.002           1.000       2.992e-02          0.8509
 424       3.471e-01       5.386e+00       3.286e-02          -0.040           0.002           0.999       2.730e-02          0.9807
 425       2.267e-01       5.386e+00       2.730e-02          -0.069           0.002           0.998       2.312e-02          1.1719
 426       1.272e-01       5.386e+00       1.982e-02          -0.100           0.002           0.995       1.759e-02          1.4961
 427       5.435e-02       5.386e+00       1.204e-02          -0.137           0.001           0.991       1.103e-02          2.2170
 428       1.247e-02       5.386e+00       5.951e-03          -0.203           0.001           0.979       3.792e-03          4.6491
Strip 34
 429       1.165e+00       5.585e+00      -2.071e-03           0.062          -0.004           0.998       3.068e-03          0.0396
 430       1.139e+00       5.585e+00      -4.248e-04           0.068          -0.003           0.998       9.030e-03          0.0966
 431       1.082e+00       5.585e+00       3.619e-03           0.074          -0.002           0.997       1.447e-02          0.1869
 432       9.955e-01       5.585e+00       1.012e-02           0.076          -0.001           0.997       1.907e-02          0.2970
 433       8.852e-01       5.585e+00       1.835e-02           0.070          -0.000           0.998       2.255e-02          0.4253
 434       7.574e-01       5.585e+00       2.679e-02           0.054           0.001           0.999       2.470e-02          0.5610
 435       6.195e-01       5.585e+00       3.304e-02           0.021           0.001           1.000       2.541e-02          0.6587
 436       4.796e-01       5.585e+00       3.489e-02          -0.012           0.002           1.000       2.467e-02          0.7413
 437       3.458e-01       5.585e+00       3.240e-02          -0.040           0.002           0.999       2.251e-02          0.8563
 438       2.258e-01       5.585e+00       2.684e-02          -0.068           0.002           0.998       1.906e-02          1.0304
 439       1.267e-01       5.585e+00       1.943e-02          -0.099           0.002           0.995       1.450e-02          1.3232
 440       5.413e-02       5.585e+00       1.173e-02          -0.137           0.001           0.991       9.095e-03          1.9611
 441       1.240e-02       5.585e+00       5.659e-03          -0.207           0.001           0.978       3.130e-03          4.0266
Strip 35
 442       1.161e+00       5.746e+00      -1.180e-03           0.059          -0.004           0.998       2.401e-03          0.0236
 443       1.136e+00       5.746e+00       3.822e-04           0.065          -0.003           0.998       7.066e-03          0.0690
 444       1.079e+00       5.746e+00       4.258e-03           0.072          -0.002           0.997       1.133e-02          0.1462
 445       9.926e-01       5.746e+00       1.055e-02           0.074          -0.001           0.997       1.492e-02          0.2418
 446       8.826e-01       5.746e+00       1.859e-02           0.069          -0.000           0.998       1.765e-02          0.3541
 447       7.552e-01       5.746e+00       2.685e-02           0.053           0.001           0.999       1.933e-02          0.4730
 448       6.177e-01       5.746e+00       3.295e-02           0.020           0.001           1.000       1.989e-02          0.5522
 449       4.782e-01       5.746e+00       3.464e-02          -0.013           0.002           1.000       1.931e-02          0.6147
 450       3.447e-01       5.746e+00       3.203e-02          -0.040           0.002           0.999       1.762e-02          0.7114
 451       2.251e-01       5.746e+00       2.646e-02          -0.068           0.002           0.998       1.492e-02          0.8649
 452       1.263e-01       5.746e+00       1.912e-02          -0.098           0.002           0.995       1.135e-02          1.1238
 453       5.395e-02       5.746e+00       1.148e-02          -0.136           0.001           0.991       7.118e-03          1.6732
 454       1.235e-02       5.746e+00       5.422e-03          -0.211           0.001           0.978       2.452e-03          3.3483
Strip 36
 455       1.159e+00       5.867e+00      -5.072e-04           0.057          -0.004           0.998       1.723e-03          0.0091
 456       1.134e+00       5.867e+00       9.923e-04           0.063          -0.003           0.998       5.070e-03          0.0433
 457       1.076e+00       5.867e+00       4.741e-03           0.070          -0.002           0.998       8.126e-03          0.1065
 458       9.904e-01       5.867e+00       1.088e-02           0.073          -0.001           0.997       1.071e-02          0.1845
 459       8.806e-01       5.867e+00       1.877e-02           0.068          -0.000           0.998       1.266e-02          0.2764
 460       7.535e-01       5.867e+00       2.690e-02           0.052           0.001           0.999       1.387e-02          0.3742
 461       6.163e-01       5.867e+00       3.288e-02           0.019           0.001           1.000       1.427e-02          0.4329
 462       4.771e-01       5.867e+00       3.444e-02          -0.014           0.002           1.000       1.386e-02          0.4746
 463       3.440e-01       5.867e+00       3.175e-02          -0.041           0.002           0.999       1.264e-02          0.5485
 464       2.246e-01       5.867e+00       2.618e-02          -0.068           0.002           0.998       1.070e-02          0.6738
 465       1.260e-01       5.867e+00       1.888e-02          -0.098           0.002           0.995       8.145e-03          0.8935
 466       5.382e-02       5.867e+00       1.129e-02          -0.136           0.001           0.991       5.107e-03          1.3529
 467       1.231e-02       5.867e+00       5.243e-03          -0.214           0.001           0.977       1.761e-03          2.6252
Strip 37
 468       1.157e+00       5.949e+00      -5.585e-05           0.055          -0.004           0.998       1.037e-03         -0.0015
 469       1.132e+00       5.949e+00       1.401e-03           0.061          -0.003           0.998       3.051e-03          0.0227
 470       1.075e+00       5.949e+00       5.064e-03           0.069          -0.002           0.998       4.890e-03          0.0703
 471       9.889e-01       5.949e+00       1.110e-02           0.072          -0.001           0.997       6.445e-03          0.1271
 472       8.793e-01       5.949e+00       1.889e-02           0.068          -0.000           0.998       7.621e-03          0.1938
 473       7.523e-01       5.949e+00       2.694e-02           0.051           0.001           0.999       8.349e-03          0.2655
 474       6.154e-01       5.949e+00       3.284e-02           0.019           0.001           1.000       8.589e-03          0.3043
 475       4.764e-01       5.949e+00       3.432e-02          -0.015           0.002           1.000       8.339e-03          0.3284
 476       3.434e-01       5.949e+00       3.156e-02          -0.041           0.002           0.999       7.610e-03          0.3777
 477       2.243e-01       5.949e+00       2.599e-02          -0.067           0.002           0.998       6.443e-03          0.4651
 478       1.258e-01       5.949e+00       1.873e-02          -0.098           0.002           0.995       4.902e-03          0.6279
 479       5.373e-02       5.949e+00       1.116e-02          -0.136           0.001           0.991       3.074e-03          0.9934
 480       1.228e-02       5.949e+00       5.123e-03          -0.215           0.001           0.977       1.060e-03          1.8746
Strip 38
 481       1.156e+00       5.990e+00       1.706e-04           0.054          -0.004           0.999       3.461e-04         -0.0048
 482       1.131e+00       5.990e+00       1.607e-03           0.060          -0.004           0.998       1.018e-03          0.0107
 483       1.074e+00       5.990e+00       5.227e-03           0.069          -0.002           0.998       1.632e-03          0.0401
 484       9.881e-01       5.990e+00       1.121e-02           0.072          -0.001           0.997       2.151e-03          0.0736
 485       8.786e-01       5.990e+00       1.895e-02           0.067          -0.000           0.998       2.544e-03          0.1129
 486       7.517e-01       5.990e+00       2.695e-02           0.051           0.001           0.999       2.787e-03          0.1553
 487       6.149e-01       5.990e+00       3.282e-02           0.018           0.001           1.000       2.867e-03          0.1777
 488       4.760e-01       5.990e+00       3.425e-02          -0.015           0.002           1.000       2.784e-03          0.1905
 489       3.432e-01       5.990e+00       3.147e-02          -0.041           0.002           0.999       2.541e-03          0.2182
 490       2.241e-01       5.990e+00       2.589e-02          -0.067           0.002           0.998       2.151e-03          0.2679
 491       1.257e-01       5.990e+00       1.865e-02          -0.098           0.002           0.995       1.636e-03          0.3602
 492       5.369e-02       5.990e+00       1.110e-02          -0.136           0.001           0.991       1.026e-03          0.5886
 493       1.226e-02       5.990e+00       5.063e-03          -0.216           0.001           0.976       3.540e-04          1.1492










