xflr5 v6.47

 Calculated polar for: NACA 65(2)-415 a=0.5

 1 1 Reynolds number fixed          Mach number fixed         

 xtrf =   1.000 (top)        1.000 (bottom)
 Mach =   0.000     Re =     6.000 e 6     Ncrit =   9.000

  alpha     CL        CD       CDp       Cm    Top Xtr Bot Xtr   Cpmin    Chinge    XCp    
 ------- -------- --------- --------- -------- ------- ------- -------- --------- ---------
 -12.000  -1.0171   0.01144   0.00668  -0.0532  0.7049  0.0087  -10.2086   0.0000   0.1844
 -10.000  -0.8118   0.00970   0.00485  -0.0516  0.6756  0.0105  -7.5703   0.0000   0.1751
  -6.000  -0.3719   0.00728   0.00232  -0.0529  0.6253  0.0163  -3.2997   0.0000   0.0978
  -4.000  -0.1434   0.00644   0.00149  -0.0549  0.6119  0.0207  -1.8941   0.0000  -0.1478
  -2.000   0.0884   0.00580   0.00096  -0.0575  0.5974  0.0396  -0.9091   0.0000   0.9117
   0.000   0.3126   0.00403   0.00056  -0.0597  0.5786  0.5326  -0.7520   0.0000   0.4401
   2.000   0.5463   0.00381   0.00068  -0.0631  0.5531  0.6817  -0.8754   0.0000   0.3619
   4.000   0.7560   0.00585   0.00178  -0.0629  0.2902  0.7364  -1.1388   0.0000   0.3275
   6.000   0.9305   0.00878   0.00376  -0.0565  0.0409  0.7984  -2.1911   0.0000   0.3028
   8.000   1.0604   0.01073   0.00578  -0.0413  0.0126  0.8999  -3.2977   0.0000   0.2784
  10.000   1.2047   0.01394   0.00919  -0.0331  0.0085  1.0000  -4.7667   0.0000   0.2640
  12.000   1.3503   0.01937   0.01475  -0.0297  0.0074  1.0000  -6.4093   0.0000   0.2551
  14.000   1.4586   0.02689   0.02249  -0.0234  0.0068  1.0000  -8.0380   0.0000   0.2453


