xflr5 v6.47

 Calculated polar for: NACA 4415

 1 1 Reynolds number fixed          Mach number fixed         

 xtrf =   1.000 (top)        1.000 (bottom)
 Mach =   0.000     Re =     6.000 e 6     Ncrit =   9.000

  alpha     CL        CD       CDp       Cm    Top Xtr Bot Xtr   Cpmin    Chinge    XCp    
 ------- -------- --------- --------- -------- ------- ------- -------- --------- ---------
 -14.000  -1.0950   0.01188   0.00785  -0.1024  0.9386  0.0157  -9.2081   0.0000   0.1372
 -12.000  -0.8819   0.01002   0.00577  -0.1011  0.8842  0.0172  -7.1957   0.0000   0.1182
 -10.000  -0.6614   0.00843   0.00400  -0.1007  0.8232  0.0219  -5.4646   0.0000   0.0817
  -8.000  -0.4351   0.00738   0.00276  -0.1009  0.7492  0.0277  -3.9257   0.0000   0.0015
  -6.000  -0.2065   0.00664   0.00187  -0.1014  0.6637  0.0405  -2.6687   0.0000  -0.2639
  -4.000   0.0236   0.00625   0.00133  -0.1022  0.5754  0.0612  -1.6528   0.0000   4.6884
  -2.000   0.2539   0.00606   0.00106  -0.1030  0.4941  0.1080  -0.9049   0.0000   0.6595
   0.000   0.4852   0.00590   0.00104  -0.1042  0.4462  0.2006  -0.8938   0.0000   0.4627
   2.000   0.7162   0.00582   0.00123  -0.1056  0.4075  0.3517  -1.1016   0.0000   0.3925
   4.000   0.9400   0.00571   0.00175  -0.1060  0.3520  0.7279  -1.3534   0.0000   0.3555
   6.000   1.1542   0.00667   0.00278  -0.1046  0.2511  1.0000  -1.7433   0.0000   0.3309
   8.000   1.3452   0.00893   0.00441  -0.0994  0.1392  1.0000  -2.4389   0.0000   0.3114
  10.000   1.5086   0.01163   0.00667  -0.0895  0.0660  1.0000  -3.3299   0.0000   0.2937
  12.000   1.6471   0.01506   0.00993  -0.0770  0.0378  1.0000  -4.3593   0.0000   0.2777
  14.000   1.7641   0.02028   0.01516  -0.0648  0.0255  1.0000  -5.4880   0.0000   0.2639


