xflr5 v6.47

 Calculated polar for: NACA 65(2)-415 a=0.5

 1 1 Reynolds number fixed          Mach number fixed         

 xtrf =   1.000 (top)        1.000 (bottom)
 Mach =   0.000     Re =     3.000 e 6     Ncrit =   9.000

  alpha     CL        CD       CDp       Cm    Top Xtr Bot Xtr   Cpmin    Chinge    XCp    
 ------- -------- --------- --------- -------- ------- ------- -------- --------- ---------
 -14.000  -1.1490   0.01670   0.01210  -0.0652  0.7786  0.0084  -12.7117   0.0000   0.1772
 -12.000  -0.9861   0.01382   0.00894  -0.0577  0.7395  0.0102  -9.8907   0.0000   0.1780
 -10.000  -0.7922   0.01158   0.00647  -0.0546  0.7013  0.0133  -7.3886   0.0000   0.1696
  -8.000  -0.5783   0.01032   0.00513  -0.0544  0.6749  0.0150  -5.0608   0.0000   0.1457
  -6.000  -0.3643   0.00849   0.00310  -0.0541  0.6495  0.0195  -3.2380   0.0000   0.0912
  -4.000  -0.1403   0.00736   0.00185  -0.0554  0.6289  0.0254  -1.8745   0.0000  -0.1599
  -2.000   0.0878   0.00640   0.00115  -0.0575  0.6161  0.0926  -0.9071   0.0000   0.9151
   0.000   0.3086   0.00446   0.00079  -0.0592  0.5987  0.6286  -0.7487   0.0000   0.4407
   2.000   0.5424   0.00443   0.00094  -0.0624  0.5809  0.7193  -0.8721   0.0000   0.3614
   4.000   0.7726   0.00473   0.00129  -0.0653  0.5237  0.7795  -1.1777   0.0000   0.3288
   6.000   0.9221   0.00913   0.00400  -0.0548  0.1065  0.8525  -2.1640   0.0000   0.3014
   8.000   1.0334   0.01236   0.00711  -0.0380  0.0178  1.0000  -3.1832   0.0000   0.2762
  10.000   1.1492   0.01697   0.01179  -0.0264  0.0104  1.0000  -4.4652   0.0000   0.2593
  12.000   1.2682   0.02308   0.01808  -0.0191  0.0096  1.0000  -5.9391   0.0000   0.2480
  14.000   1.3708   0.03159   0.02683  -0.0137  0.0088  1.0000  -7.4727   0.0000   0.2391


