xflr5 v6.47

 Calculated polar for: NACA 4415

 1 1 Reynolds number fixed          Mach number fixed         

 xtrf =   1.000 (top)        1.000 (bottom)
 Mach =   0.000     Re =     3.000 e 6     Ncrit =   9.000

  alpha     CL        CD       CDp       Cm    Top Xtr Bot Xtr   Cpmin    Chinge    XCp    
 ------- -------- --------- --------- -------- ------- ------- -------- --------- ---------
 -14.000  -1.0649   0.01457   0.01039  -0.1066  0.9668  0.0171  -8.9864   0.0000   0.1304
 -12.000  -0.8669   0.01158   0.00713  -0.1034  0.9262  0.0209  -7.0968   0.0000   0.1134
 -10.000  -0.6518   0.00966   0.00495  -0.1022  0.8682  0.0255  -5.4058   0.0000   0.0770
  -8.000  -0.4286   0.00828   0.00338  -0.1020  0.8082  0.0331  -3.8910   0.0000  -0.0047
  -6.000  -0.2020   0.00734   0.00226  -0.1021  0.7344  0.0469  -2.6496   0.0000  -0.2787
  -4.000   0.0250   0.00684   0.00157  -0.1022  0.6403  0.0736  -1.6469   0.0000   4.4574
   0.000   0.4807   0.00641   0.00123  -0.1033  0.4858  0.2526  -0.8912   0.0000   0.4627
   2.000   0.7062   0.00611   0.00152  -0.1038  0.4360  0.5572  -1.0949   0.0000   0.3921
   4.000   0.9234   0.00582   0.00212  -0.1021  0.3978  0.9767  -1.3409   0.0000   0.3533
   6.000   1.1491   0.00703   0.00295  -0.1033  0.3188  1.0000  -1.7372   0.0000   0.3301
   8.000   1.3378   0.00928   0.00459  -0.0977  0.2023  1.0000  -2.4250   0.0000   0.3105
  10.000   1.4845   0.01263   0.00735  -0.0850  0.0997  1.0000  -3.2678   0.0000   0.2917
  12.000   1.6094   0.01705   0.01155  -0.0714  0.0526  1.0000  -4.2398   0.0000   0.2753
  14.000   1.7116   0.02381   0.01834  -0.0590  0.0337  1.0000  -5.2877   0.0000   0.2615


